


113118  0  0  0  0  0  0  0  0999 V2000
   16.8249  -14.1481   18.6467 C   0  0  0  0  0  0  0  0  0  0  0  0
   18.0612  -13.5605   19.0029 O   0  0  0  0  0  0  0  0  0  0  0  0
   18.6569  -14.2572   20.0932 C   0  0  0  0  0  0  0  0  0  0  0  0
   18.6149  -15.8206   19.9248 C   0  0  0  0  0  0  0  0  0  0  0  0
   18.3682  -16.1798   18.4473 C   0  0  0  0  0  0  0  0  0  0  0  0
   19.4917  -15.8051   17.6894 O   0  0  0  0  0  0  0  0  0  0  0  0
   17.0939  -15.4751   17.9034 C   0  0  0  0  0  0  0  0  0  0  0  0
   15.9804  -16.3213   18.0460 O   0  0  0  0  0  0  0  0  0  0  0  0
   19.4185  -16.2683   16.8152 H   0  0  0  0  0  0  0  0  0  0  0  0
   16.0488  -17.0064   17.3308 H   0  0  0  0  0  0  0  0  0  0  0  0
   20.0587  -13.7204   20.2594 C   0  0  0  0  0  0  0  0  0  0  0  0
   21.0619  -14.4526   20.0375 O   0  0  0  0  0  0  0  0  0  0  0  0
   20.2439  -12.3464   20.6408 N   0  0  0  0  0  0  0  0  0  0  0  0
   19.3965  -11.7468   20.7579 H   0  0  0  0  0  0  0  0  0  0  0  0
   21.5560  -11.7225   20.8475 C   0  0  0  0  0  0  0  0  0  0  0  0
   21.8792  -11.6450   22.3172 C   0  0  0  0  0  0  0  0  0  0  0  0
   21.9363  -12.7899   23.1017 O   0  0  0  0  0  0  0  0  0  0  0  0
   22.0934  -10.5245   22.8481 O   0  0  0  0  0  0  0  0  0  0  0  0
   21.6267  -10.3488   20.1516 C   0  0  0  0  0  0  0  0  0  0  0  0
   20.6980  -10.2800   19.1031 O   0  0  0  0  0  0  0  0  0  0  0  0
   21.0577  -10.8384   18.3657 H   0  0  0  0  0  0  0  0  0  0  0  0
   17.5480  -16.3681   20.6933 O   0  0  0  0  0  0  0  0  0  0  0  0
   17.7879  -17.7121   21.0846 C   0  0  0  0  0  0  0  0  0  0  0  0
   19.0525  -17.8274   21.7253 O   0  0  0  0  0  0  0  0  0  0  0  0
   19.0650  -17.6152   23.1362 C   0  0  0  0  0  0  0  0  0  0  0  0
   17.8455  -16.8338   23.7077 C   0  0  0  0  0  0  0  0  0  0  0  0
   17.9079  -15.5005   23.2659 O   0  0  0  0  0  0  0  0  0  0  0  0
   16.5008  -17.4514   23.2813 C   0  0  0  0  0  0  0  0  0  0  0  0
   16.0452  -18.3227   24.2876 O   0  0  0  0  0  0  0  0  0  0  0  0
   16.6125  -18.2234   21.9440 C   0  0  0  0  0  0  0  0  0  0  0  0
   18.2511  -14.9464   24.0137 H   0  0  0  0  0  0  0  0  0  0  0  0
   15.0685  -18.4353   24.1474 H   0  0  0  0  0  0  0  0  0  0  0  0
   15.3587  -18.1330   21.1839 N   0  0  0  0  0  0  0  0  0  0  0  0
   14.2818  -19.0621   21.3650 C   0  0  0  0  0  0  0  0  0  0  0  0
   13.0542  -18.9593   20.5207 C   0  0  0  0  0  0  0  0  0  0  0  0
   14.3417  -19.9438   22.2649 O   0  0  0  0  0  0  0  0  0  0  0  0
   15.2650  -17.4208   20.4257 H   0  0  0  0  0  0  0  0  0  0  0  0
   19.3348  -18.9616   23.8516 C   0  0  0  0  0  0  0  0  0  0  0  0
   19.9555  -19.9057   22.9962 O   0  0  0  0  0  0  0  0  0  0  0  0
   19.6190  -21.2439   23.3246 C   0  0  0  0  0  0  0  0  0  0  0  0
   19.1422  -21.2920   24.6704 O   0  0  0  0  0  0  0  0  0  0  0  0
   18.3961  -22.4543   24.9838 C   0  0  0  0  0  0  0  0  0  0  0  0
   17.0714  -22.5293   24.1704 C   0  0  0  0  0  0  0  0  0  0  0  0
   17.1622  -21.6937   22.8740 C   0  0  0  0  0  0  0  0  0  0  0  0
   16.2387  -22.1709   21.9308 O   0  0  0  0  0  0  0  0  0  0  0  0
   18.5754  -21.7692   22.2882 C   0  0  0  0  0  0  0  0  0  0  0  0
   15.3790  -21.7063   22.1060 H   0  0  0  0  0  0  0  0  0  0  0  0
   18.6331  -21.0028   21.0333 N   0  0  0  0  0  0  0  0  0  0  0  0
   18.8156  -21.5733   19.7278 C   0  0  0  0  0  0  0  0  0  0  0  0
   18.6998  -23.0458   19.4761 C   0  0  0  0  0  0  0  0  0  0  0  0
   19.0989  -20.8139   18.7613 O   0  0  0  0  0  0  0  0  0  0  0  0
   18.5482  -19.9607   21.0879 H   0  0  0  0  0  0  0  0  0  0  0  0
   19.2437  -23.7421   24.9286 C   0  0  0  0  0  0  0  0  0  0  0  0
   19.8137  -23.9845   26.1834 O   0  0  0  0  0  0  0  0  0  0  0  0
   20.2549  -24.8707   26.1199 H   0  0  0  0  0  0  0  0  0  0  0  0
   16.0308  -21.9980   24.9770 O   0  0  0  0  0  0  0  0  0  0  0  0
   14.9692  -22.9113   25.1846 C   0  0  0  0  0  0  0  0  0  0  0  0
   15.0583  -23.9130   24.1658 O   0  0  0  0  0  0  0  0  0  0  0  0
   13.9913  -24.3330   23.3550 C   0  0  0  0  0  0  0  0  0  0  0  0
   12.7413  -23.9453   23.6390 C   0  0  0  0  0  0  0  0  0  0  0  0
   12.4646  -23.1405   24.8726 C   0  0  0  0  0  0  0  0  0  0  0  0
   11.2591  -22.4419   24.7056 O   0  0  0  0  0  0  0  0  0  0  0  0
   13.6214  -22.1517   25.1117 C   0  0  0  0  0  0  0  0  0  0  0  0
   13.4064  -21.3952   26.2774 O   0  0  0  0  0  0  0  0  0  0  0  0
   10.9010  -22.2649   25.6134 H   0  0  0  0  0  0  0  0  0  0  0  0
   13.3502  -22.0274   27.0403 H   0  0  0  0  0  0  0  0  0  0  0  0
   14.3160  -25.1669   22.1804 C   0  0  0  0  0  0  0  0  0  0  0  0
   14.4236  -24.5979   21.0630 O   0  0  0  0  0  0  0  0  0  0  0  0
   14.5295  -26.5861   22.2893 N   0  0  0  0  0  0  0  0  0  0  0  0
   14.4975  -27.0443   23.2270 H   0  0  0  0  0  0  0  0  0  0  0  0
   14.7508  -27.4433   21.1214 C   0  0  0  0  0  0  0  0  0  0  0  0
   13.4675  -28.1190   20.7393 C   0  0  0  0  0  0  0  0  0  0  0  0
   12.2900  -27.3839   20.6698 O   0  0  0  0  0  0  0  0  0  0  0  0
   13.4485  -29.3496   20.4719 O   0  0  0  0  0  0  0  0  0  0  0  0
   15.8486  -28.4729   21.4319 C   0  0  0  0  0  0  0  0  0  0  0  0
   15.5761  -29.1389   22.6366 O   0  0  0  0  0  0  0  0  0  0  0  0
   14.8673  -29.8046   22.4375 H   0  0  0  0  0  0  0  0  0  0  0  0
   16.1276  -13.2467   17.7996 O   0  0  0  0  0  0  0  0  0  0  0  0
   13.3267  -11.5585   20.2924 C   0  0  0  0  0  0  0  0  0  0  0  0
   14.6297  -11.7580   20.8170 O   0  0  0  0  0  0  0  0  0  0  0  0
   15.6094  -11.9414   19.7924 C   0  0  0  0  0  0  0  0  0  0  0  0
   15.0644  -12.5913   18.4831 C   0  0  0  0  0  0  0  0  0  0  0  0
   13.9773  -13.6027   18.8939 C   0  0  0  0  0  0  0  0  0  0  0  0
   13.4771  -14.2898   17.7742 O   0  0  0  0  0  0  0  0  0  0  0  0
   12.8130  -12.8499   19.5971 C   0  0  0  0  0  0  0  0  0  0  0  0
   14.0981  -15.0436   17.5929 H   0  0  0  0  0  0  0  0  0  0  0  0
   12.0187  -13.6850   20.5209 N   0  0  0  0  0  0  0  0  0  0  0  0
   12.2132  -15.0813   20.7752 C   0  0  0  0  0  0  0  0  0  0  0  0
   11.0806  -16.0315   20.5734 C   0  0  0  0  0  0  0  0  0  0  0  0
   13.2849  -15.4914   21.2958 O   0  0  0  0  0  0  0  0  0  0  0  0
   11.0963  -13.2946   20.8166 H   0  0  0  0  0  0  0  0  0  0  0  0
   16.3739  -10.6329   19.5340 C   0  0  0  0  0  0  0  0  0  0  0  0
   17.7378  -10.7833   19.8104 O   0  0  0  0  0  0  0  0  0  0  0  0
   18.1502   -9.8947   19.6547 H   0  0  0  0  0  0  0  0  0  0  0  0
   12.4443  -11.1779   21.3351 O   0  0  0  0  0  0  0  0  0  0  0  0
   13.0385  -10.2196   22.1945 C   0  0  0  0  0  0  0  0  0  0  0  0
   11.6306  -11.1885   26.1151 C   0  0  0  0  0  0  0  0  0  0  0  0
   10.7731  -10.4452   25.0616 C   0  0  0  0  0  0  0  0  0  0  0  0
    9.9765   -9.4725   25.6828 O   0  0  0  0  0  0  0  0  0  0  0  0
   11.5543   -9.8143   24.0543 O   0  0  0  0  0  0  0  0  0  0  0  0
   12.7277  -10.5303   23.6726 C   0  0  0  0  0  0  0  0  0  0  0  0
   12.6455  -12.0580   23.9184 C   0  0  0  0  0  0  0  0  0  0  0  0
   13.8449  -12.6722   23.5216 O   0  0  0  0  0  0  0  0  0  0  0  0
   12.3755  -12.3588   25.4145 C   0  0  0  0  0  0  0  0  0  0  0  0
   11.6105  -13.5341   25.5028 O   0  0  0  0  0  0  0  0  0  0  0  0
    9.2400   -9.9534   26.1447 H   0  0  0  0  0  0  0  0  0  0  0  0
   13.6525  -13.6420   23.4262 H   0  0  0  0  0  0  0  0  0  0  0  0
   11.7363  -13.8937   26.4209 H   0  0  0  0  0  0  0  0  0  0  0  0
   13.6895   -9.1981   28.7719 C   0  0  0  0  0  0  0  0  0  0  0  0
   12.8604  -10.2856   28.1675 C   0  0  0  0  0  0  0  0  0  0  0  0
   12.4236  -11.2166   28.8978 O   0  0  0  0  0  0  0  0  0  0  0  0
   12.5802  -10.2666   26.7619 N   0  0  0  0  0  0  0  0  0  0  0  0
   13.1315   -9.5971   26.1787 H   0  0  0  0  0  0  0  0  0  0  0  0
109110  1  0  0  0
110111  2  0  0  0
110112  1  0  0  0
112 97  1  0  0  0
112113  1  0  0  0
 97 98  1  0  0  0
 97104  1  0  0  0
 98 99  1  0  0  0
 98100  1  0  0  0
 99106  1  0  0  0
100101  1  0  0  0
101 96  1  0  0  0
101102  1  0  0  0
 96 95  1  0  0  0
 95 79  1  0  0  0
 79 80  1  0  0  0
 79 85  1  0  0  0
 80 81  1  0  0  0
 81 92  1  0  0  0
 81 82  1  0  0  0
 92 93  1  0  0  0
 93 94  1  0  0  0
 82 78  1  0  0  0
 82 83  1  0  0  0
 78  1  1  0  0  0
  1  2  1  0  0  0
  1  7  1  0  0  0
  2  3  1  0  0  0
  3 11  1  0  0  0
  3  4  1  0  0  0
 11 12  2  0  0  0
 11 13  1  0  0  0
 13 15  1  0  0  0
 13 14  1  0  0  0
 15 19  1  0  0  0
 15 16  1  0  0  0
 19 20  1  0  0  0
 20 21  1  0  0  0
 16 17  1  0  0  0
 16 18  2  0  0  0
  4 22  1  0  0  0
  4  5  1  0  0  0
 22 23  1  0  0  0
 23 24  1  0  0  0
 23 30  1  0  0  0
 24 25  1  0  0  0
 25 38  1  0  0  0
 25 26  1  0  0  0
 38 39  1  0  0  0
 39 40  1  0  0  0
 40 41  1  0  0  0
 40 46  1  0  0  0
 41 42  1  0  0  0
 42 53  1  0  0  0
 42 43  1  0  0  0
 53 54  1  0  0  0
 54 55  1  0  0  0
 43 56  1  0  0  0
 43 44  1  0  0  0
 56 57  1  0  0  0
 57 58  1  0  0  0
 57 63  1  0  0  0
 58 59  1  0  0  0
 59 67  1  0  0  0
 59 60  2  0  0  0
 67 68  2  0  0  0
 67 69  1  0  0  0
 69 71  1  0  0  0
 69 70  1  0  0  0
 71 75  1  0  0  0
 71 72  1  0  0  0
 75 76  1  0  0  0
 76 77  1  0  0  0
 72 73  1  0  0  0
 72 74  2  0  0  0
 60 61  1  0  0  0
 61 62  1  0  0  0
 61 63  1  0  0  0
 62 65  1  0  0  0
 63 64  1  0  0  0
 64 66  1  0  0  0
 44 45  1  0  0  0
 44 46  1  0  0  0
 45 47  1  0  0  0
 46 48  1  0  0  0
 48 49  1  0  0  0
 48 52  1  0  0  0
 49 50  1  0  0  0
 49 51  2  0  0  0
 26 27  1  0  0  0
 26 28  1  0  0  0
 27 31  1  0  0  0
 28 29  1  0  0  0
 28 30  1  0  0  0
 29 32  1  0  0  0
 30 33  1  0  0  0
 33 34  1  0  0  0
 33 37  1  0  0  0
 34 35  1  0  0  0
 34 36  2  0  0  0
  5  6  1  0  0  0
  5  7  1  0  0  0
  6  9  1  0  0  0
  7  8  1  0  0  0
  8 10  1  0  0  0
 83 84  1  0  0  0
 83 85  1  0  0  0
 84 86  1  0  0  0
 85 87  1  0  0  0
 87 88  1  0  0  0
 87 91  1  0  0  0
 88 89  1  0  0  0
 88 90  2  0  0  0
102103  1  0  0  0
102104  1  0  0  0
103107  1  0  0  0
104105  1  0  0  0
105108  1  0  0  0
M  CHG 1  17  -1
M  CHG 1  73  -1
M  END
> <COMPND>
    ../0-casp/lQQhMR.pdb 

> <AUTHOR>
    GENERATED BY OPEN BABEL 3.1.0

> <MASTER>
        0    0    0    0    0    0    0    0  168    0  168    0

> <minimizedAffinity>
-8.21370

> <CNNscore>
0.4315067530

> <CNNaffinity>
5.6670331955

> <CNN_VS>
2.4453630447

> <CNNaffinity_variance>
1.9407498837

$$$$



113118  0  0  0  0  0  0  0  0999 V2000
  -17.5121   14.4997  -16.7290 C   0  0  0  0  0  0  0  0  0  0  0  0
  -18.7267   14.2659  -17.4152 O   0  0  0  0  0  0  0  0  0  0  0  0
  -19.6374   15.3423  -17.2127 C   0  0  0  0  0  0  0  0  0  0  0  0
  -18.9690   16.7567  -17.3760 C   0  0  0  0  0  0  0  0  0  0  0  0
  -17.6457   16.6219  -18.1530 C   0  0  0  0  0  0  0  0  0  0  0  0
  -17.9272   16.2446  -19.4780 O   0  0  0  0  0  0  0  0  0  0  0  0
  -16.7064   15.5787  -17.4855 C   0  0  0  0  0  0  0  0  0  0  0  0
  -15.8359   16.2222  -16.5886 O   0  0  0  0  0  0  0  0  0  0  0  0
  -17.1054   16.4132  -20.0076 H   0  0  0  0  0  0  0  0  0  0  0  0
  -15.1406   16.6707  -17.1372 H   0  0  0  0  0  0  0  0  0  0  0  0
  -20.8022   15.1298  -18.1501 C   0  0  0  0  0  0  0  0  0  0  0  0
  -21.7535   15.9573  -18.1971 O   0  0  0  0  0  0  0  0  0  0  0  0
  -20.8023   13.9865  -19.0223 N   0  0  0  0  0  0  0  0  0  0  0  0
  -19.9730   13.3516  -19.0058 H   0  0  0  0  0  0  0  0  0  0  0  0
  -21.8859   13.6709  -19.9602 C   0  0  0  0  0  0  0  0  0  0  0  0
  -22.0495   12.1792  -20.0968 C   0  0  0  0  0  0  0  0  0  0  0  0
  -23.0581   11.6359  -20.8824 O   0  0  0  0  0  0  0  0  0  0  0  0
  -21.2659   11.4093  -19.4833 O   0  0  0  0  0  0  0  0  0  0  0  0
  -21.6597   14.3691  -21.3158 C   0  0  0  0  0  0  0  0  0  0  0  0
  -22.8862   14.7012  -21.9091 O   0  0  0  0  0  0  0  0  0  0  0  0
  -23.2810   13.8540  -22.2427 H   0  0  0  0  0  0  0  0  0  0  0  0
  -18.6723   17.3095  -16.0973 O   0  0  0  0  0  0  0  0  0  0  0  0
  -19.5550   18.3621  -15.7370 C   0  0  0  0  0  0  0  0  0  0  0  0
  -20.8918   17.8842  -15.6483 O   0  0  0  0  0  0  0  0  0  0  0  0
  -21.2932   17.3695  -14.3795 C   0  0  0  0  0  0  0  0  0  0  0  0
  -20.1338   16.9528  -13.4274 C   0  0  0  0  0  0  0  0  0  0  0  0
  -19.4949   15.8164  -13.9538 O   0  0  0  0  0  0  0  0  0  0  0  0
  -19.0999   18.0776  -13.2346 C   0  0  0  0  0  0  0  0  0  0  0  0
  -19.4082   18.8028  -12.0691 O   0  0  0  0  0  0  0  0  0  0  0  0
  -19.0564   19.0423  -14.4447 C   0  0  0  0  0  0  0  0  0  0  0  0
  -19.8136   15.0247  -13.4482 H   0  0  0  0  0  0  0  0  0  0  0  0
  -18.5779   19.2758  -11.7989 H   0  0  0  0  0  0  0  0  0  0  0  0
  -17.6987   19.5660  -14.6450 N   0  0  0  0  0  0  0  0  0  0  0  0
  -17.2160   20.7308  -13.9625 C   0  0  0  0  0  0  0  0  0  0  0  0
  -15.8475   21.2547  -14.2513 C   0  0  0  0  0  0  0  0  0  0  0  0
  -17.9220   21.2962  -13.0835 O   0  0  0  0  0  0  0  0  0  0  0  0
  -17.0792   19.1321  -15.3655 H   0  0  0  0  0  0  0  0  0  0  0  0
  -22.3120   18.3411  -13.7348 C   0  0  0  0  0  0  0  0  0  0  0  0
  -23.0011   17.7480  -12.6478 O   0  0  0  0  0  0  0  0  0  0  0  0
  -24.3247   17.3648  -12.9843 C   0  0  0  0  0  0  0  0  0  0  0  0
  -24.3689   15.9507  -13.1822 O   0  0  0  0  0  0  0  0  0  0  0  0
  -25.6681   15.3919  -13.1096 C   0  0  0  0  0  0  0  0  0  0  0  0
  -26.2826   15.5368  -11.6871 C   0  0  0  0  0  0  0  0  0  0  0  0
  -25.6273   16.7004  -10.9100 C   0  0  0  0  0  0  0  0  0  0  0  0
  -26.4976   17.1574   -9.9080 O   0  0  0  0  0  0  0  0  0  0  0  0
  -25.2916   17.8542  -11.8597 C   0  0  0  0  0  0  0  0  0  0  0  0
  -26.3327   16.5989   -9.1039 H   0  0  0  0  0  0  0  0  0  0  0  0
  -24.7071   18.9692  -11.0975 N   0  0  0  0  0  0  0  0  0  0  0  0
  -25.0412   20.3544  -11.2779 C   0  0  0  0  0  0  0  0  0  0  0  0
  -26.2252   20.7920  -12.0853 C   0  0  0  0  0  0  0  0  0  0  0  0
  -24.3063   21.2354  -10.7538 O   0  0  0  0  0  0  0  0  0  0  0  0
  -23.9826   18.7462  -10.3753 H   0  0  0  0  0  0  0  0  0  0  0  0
  -26.5913   15.8744  -14.2474 C   0  0  0  0  0  0  0  0  0  0  0  0
  -27.8836   16.0780  -13.7506 O   0  0  0  0  0  0  0  0  0  0  0  0
  -28.4033   16.4851  -14.4910 H   0  0  0  0  0  0  0  0  0  0  0  0
  -26.0406   14.3298  -10.9797 O   0  0  0  0  0  0  0  0  0  0  0  0
  -27.0059   14.0722   -9.9767 C   0  0  0  0  0  0  0  0  0  0  0  0
  -26.5460   12.9508   -9.2151 O   0  0  0  0  0  0  0  0  0  0  0  0
  -27.3170   11.8189   -8.9039 C   0  0  0  0  0  0  0  0  0  0  0  0
  -28.6346   11.8196   -9.1433 C   0  0  0  0  0  0  0  0  0  0  0  0
  -29.3060   13.0574   -9.6562 C   0  0  0  0  0  0  0  0  0  0  0  0
  -30.5033   12.7005  -10.2951 O   0  0  0  0  0  0  0  0  0  0  0  0
  -28.3708   13.7769  -10.6466 C   0  0  0  0  0  0  0  0  0  0  0  0
  -28.9601   14.9584  -11.1303 O   0  0  0  0  0  0  0  0  0  0  0  0
  -31.0972   13.4939  -10.2572 H   0  0  0  0  0  0  0  0  0  0  0  0
  -29.1330   15.5490  -10.3519 H   0  0  0  0  0  0  0  0  0  0  0  0
  -26.6109   10.6446   -8.3535 C   0  0  0  0  0  0  0  0  0  0  0  0
  -25.5319   10.2945   -8.8987 O   0  0  0  0  0  0  0  0  0  0  0  0
  -27.1108    9.9199   -7.2148 N   0  0  0  0  0  0  0  0  0  0  0  0
  -27.9746   10.2493   -6.7296 H   0  0  0  0  0  0  0  0  0  0  0  0
  -26.4791    8.6937   -6.7198 C   0  0  0  0  0  0  0  0  0  0  0  0
  -27.1394    7.4984   -7.3401 C   0  0  0  0  0  0  0  0  0  0  0  0
  -27.6522    7.5798   -8.6293 O   0  0  0  0  0  0  0  0  0  0  0  0
  -27.2266    6.4149   -6.7040 O   0  0  0  0  0  0  0  0  0  0  0  0
  -26.5696    8.6439   -5.1865 C   0  0  0  0  0  0  0  0  0  0  0  0
  -25.2934    8.5065   -4.6196 O   0  0  0  0  0  0  0  0  0  0  0  0
  -24.8656    9.4010   -4.6661 H   0  0  0  0  0  0  0  0  0  0  0  0
  -16.7799   13.2838  -16.6866 O   0  0  0  0  0  0  0  0  0  0  0  0
  -18.0481   10.0822  -18.9339 C   0  0  0  0  0  0  0  0  0  0  0  0
  -17.9144    9.8842  -17.5354 O   0  0  0  0  0  0  0  0  0  0  0  0
  -17.8870   11.1150  -16.8092 C   0  0  0  0  0  0  0  0  0  0  0  0
  -17.2955   12.3220  -17.6011 C   0  0  0  0  0  0  0  0  0  0  0  0
  -16.1728   11.7713  -18.5009 C   0  0  0  0  0  0  0  0  0  0  0  0
  -15.5337   12.8078  -19.2034 O   0  0  0  0  0  0  0  0  0  0  0  0
  -16.7756   10.7589  -19.5150 C   0  0  0  0  0  0  0  0  0  0  0  0
  -14.8475   13.1919  -18.5964 H   0  0  0  0  0  0  0  0  0  0  0  0
  -15.8130    9.7603  -20.0228 N   0  0  0  0  0  0  0  0  0  0  0  0
  -14.6812   10.0283  -20.8591 C   0  0  0  0  0  0  0  0  0  0  0  0
  -14.5432    9.3153  -22.1626 C   0  0  0  0  0  0  0  0  0  0  0  0
  -13.7384   10.7532  -20.4430 O   0  0  0  0  0  0  0  0  0  0  0  0
  -16.1195    8.7627  -19.9808 H   0  0  0  0  0  0  0  0  0  0  0  0
  -19.2678   11.4183  -16.2055 C   0  0  0  0  0  0  0  0  0  0  0  0
  -20.2265   10.5031  -16.6556 O   0  0  0  0  0  0  0  0  0  0  0  0
  -21.0879   10.7858  -16.2531 H   0  0  0  0  0  0  0  0  0  0  0  0
  -18.2781    8.8376  -19.5735 O   0  0  0  0  0  0  0  0  0  0  0  0
  -18.9016    7.9118  -18.6993 C   0  0  0  0  0  0  0  0  0  0  0  0
  -21.6173    5.0738  -20.3910 C   0  0  0  0  0  0  0  0  0  0  0  0
  -21.1895    5.0611  -18.9030 C   0  0  0  0  0  0  0  0  0  0  0  0
  -21.0572    3.7414  -18.4472 O   0  0  0  0  0  0  0  0  0  0  0  0
  -19.9640    5.7448  -18.6714 O   0  0  0  0  0  0  0  0  0  0  0  0
  -19.7622    6.9005  -19.4831 C   0  0  0  0  0  0  0  0  0  0  0  0
  -21.0720    7.5545  -19.9906 C   0  0  0  0  0  0  0  0  0  0  0  0
  -20.7721    8.6741  -20.7843 O   0  0  0  0  0  0  0  0  0  0  0  0
  -21.9080    6.5412  -20.8128 C   0  0  0  0  0  0  0  0  0  0  0  0
  -23.2702    6.8315  -20.6274 O   0  0  0  0  0  0  0  0  0  0  0  0
  -21.9760    3.3827  -18.3290 H   0  0  0  0  0  0  0  0  0  0  0  0
  -21.6042    9.2127  -20.8464 H   0  0  0  0  0  0  0  0  0  0  0  0
  -23.7596    6.4270  -21.3922 H   0  0  0  0  0  0  0  0  0  0  0  0
  -19.1908    2.5370  -22.1044 C   0  0  0  0  0  0  0  0  0  0  0  0
  -20.3868    3.0595  -21.3751 C   0  0  0  0  0  0  0  0  0  0  0  0
  -21.2267    2.2510  -20.8935 O   0  0  0  0  0  0  0  0  0  0  0  0
  -20.5741    4.4743  -21.2408 N   0  0  0  0  0  0  0  0  0  0  0  0
  -19.9676    5.0896  -21.8288 H   0  0  0  0  0  0  0  0  0  0  0  0
109110  1  0  0  0
110111  2  0  0  0
110112  1  0  0  0
112 97  1  0  0  0
112113  1  0  0  0
 97 98  1  0  0  0
 97104  1  0  0  0
 98 99  1  0  0  0
 98100  1  0  0  0
 99106  1  0  0  0
100101  1  0  0  0
101 96  1  0  0  0
101102  1  0  0  0
 96 95  1  0  0  0
 95 79  1  0  0  0
 79 80  1  0  0  0
 79 85  1  0  0  0
 80 81  1  0  0  0
 81 92  1  0  0  0
 81 82  1  0  0  0
 92 93  1  0  0  0
 93 94  1  0  0  0
 82 78  1  0  0  0
 82 83  1  0  0  0
 78  1  1  0  0  0
  1  2  1  0  0  0
  1  7  1  0  0  0
  2  3  1  0  0  0
  3 11  1  0  0  0
  3  4  1  0  0  0
 11 12  2  0  0  0
 11 13  1  0  0  0
 13 15  1  0  0  0
 13 14  1  0  0  0
 15 19  1  0  0  0
 15 16  1  0  0  0
 19 20  1  0  0  0
 20 21  1  0  0  0
 16 17  1  0  0  0
 16 18  2  0  0  0
  4 22  1  0  0  0
  4  5  1  0  0  0
 22 23  1  0  0  0
 23 24  1  0  0  0
 23 30  1  0  0  0
 24 25  1  0  0  0
 25 38  1  0  0  0
 25 26  1  0  0  0
 38 39  1  0  0  0
 39 40  1  0  0  0
 40 41  1  0  0  0
 40 46  1  0  0  0
 41 42  1  0  0  0
 42 53  1  0  0  0
 42 43  1  0  0  0
 53 54  1  0  0  0
 54 55  1  0  0  0
 43 56  1  0  0  0
 43 44  1  0  0  0
 56 57  1  0  0  0
 57 58  1  0  0  0
 57 63  1  0  0  0
 58 59  1  0  0  0
 59 67  1  0  0  0
 59 60  2  0  0  0
 67 68  2  0  0  0
 67 69  1  0  0  0
 69 71  1  0  0  0
 69 70  1  0  0  0
 71 75  1  0  0  0
 71 72  1  0  0  0
 75 76  1  0  0  0
 76 77  1  0  0  0
 72 73  1  0  0  0
 72 74  2  0  0  0
 60 61  1  0  0  0
 61 62  1  0  0  0
 61 63  1  0  0  0
 62 65  1  0  0  0
 63 64  1  0  0  0
 64 66  1  0  0  0
 44 45  1  0  0  0
 44 46  1  0  0  0
 45 47  1  0  0  0
 46 48  1  0  0  0
 48 49  1  0  0  0
 48 52  1  0  0  0
 49 50  1  0  0  0
 49 51  2  0  0  0
 26 27  1  0  0  0
 26 28  1  0  0  0
 27 31  1  0  0  0
 28 29  1  0  0  0
 28 30  1  0  0  0
 29 32  1  0  0  0
 30 33  1  0  0  0
 33 34  1  0  0  0
 33 37  1  0  0  0
 34 35  1  0  0  0
 34 36  2  0  0  0
  5  6  1  0  0  0
  5  7  1  0  0  0
  6  9  1  0  0  0
  7  8  1  0  0  0
  8 10  1  0  0  0
 83 84  1  0  0  0
 83 85  1  0  0  0
 84 86  1  0  0  0
 85 87  1  0  0  0
 87 88  1  0  0  0
 87 91  1  0  0  0
 88 89  1  0  0  0
 88 90  2  0  0  0
102103  1  0  0  0
102104  1  0  0  0
103107  1  0  0  0
104105  1  0  0  0
105108  1  0  0  0
M  CHG 1  17  -1
M  CHG 1  73  -1
M  END
> <COMPND>
    ../0-casp/lQQhMR.pdb 

> <AUTHOR>
    GENERATED BY OPEN BABEL 3.1.0

> <MASTER>
        0    0    0    0    0    0    0    0  168    0  168    0

> <minimizedAffinity>
-9.60161

> <CNNscore>
0.3419675529

> <CNNaffinity>
5.7219581604

> <CNN_VS>
1.9567240477

> <CNNaffinity_variance>
1.3846088648

$$$$



113118  0  0  0  0  0  0  0  0999 V2000
   13.0628    7.5596  -26.0953 C   0  0  0  0  0  0  0  0  0  0  0  0
   13.1512    8.8763  -26.6046 O   0  0  0  0  0  0  0  0  0  0  0  0
   13.9904    8.9184  -27.7548 C   0  0  0  0  0  0  0  0  0  0  0  0
   13.6963    7.7600  -28.7774 C   0  0  0  0  0  0  0  0  0  0  0  0
   12.3008    7.1667  -28.5067 C   0  0  0  0  0  0  0  0  0  0  0  0
   11.3238    8.1282  -28.8206 O   0  0  0  0  0  0  0  0  0  0  0  0
   12.1583    6.7204  -27.0245 C   0  0  0  0  0  0  0  0  0  0  0  0
   12.4965    5.3617  -26.8986 O   0  0  0  0  0  0  0  0  0  0  0  0
   10.4571    7.6497  -28.8844 H   0  0  0  0  0  0  0  0  0  0  0  0
   11.7277    4.8419  -27.2510 H   0  0  0  0  0  0  0  0  0  0  0  0
   13.8498   10.2925  -28.3654 C   0  0  0  0  0  0  0  0  0  0  0  0
   13.8029   10.4420  -29.6173 O   0  0  0  0  0  0  0  0  0  0  0  0
   13.7323   11.4362  -27.5017 N   0  0  0  0  0  0  0  0  0  0  0  0
   13.7123   11.2767  -26.4695 H   0  0  0  0  0  0  0  0  0  0  0  0
   13.6081   12.8172  -27.9822 C   0  0  0  0  0  0  0  0  0  0  0  0
   14.9606   13.4783  -28.0474 C   0  0  0  0  0  0  0  0  0  0  0  0
   15.3646   14.3854  -27.0761 O   0  0  0  0  0  0  0  0  0  0  0  0
   15.7368   13.2126  -29.0014 O   0  0  0  0  0  0  0  0  0  0  0  0
   12.6020   13.6090  -27.1235 C   0  0  0  0  0  0  0  0  0  0  0  0
   11.2886   13.2113  -27.4122 O   0  0  0  0  0  0  0  0  0  0  0  0
   11.0619   13.5958  -28.2986 H   0  0  0  0  0  0  0  0  0  0  0  0
   14.6536    6.7165  -28.6248 O   0  0  0  0  0  0  0  0  0  0  0  0
   15.9323    7.1980  -28.2377 C   0  0  0  0  0  0  0  0  0  0  0  0
   16.4944    6.3673  -27.2292 O   0  0  0  0  0  0  0  0  0  0  0  0
   17.2624    5.2549  -27.6858 C   0  0  0  0  0  0  0  0  0  0  0  0
   16.9978    4.8154  -29.1559 C   0  0  0  0  0  0  0  0  0  0  0  0
   15.7069    4.2655  -29.2443 O   0  0  0  0  0  0  0  0  0  0  0  0
   17.1249    5.9847  -30.1498 C   0  0  0  0  0  0  0  0  0  0  0  0
   18.4223    5.9988  -30.6936 O   0  0  0  0  0  0  0  0  0  0  0  0
   16.8316    7.3506  -29.4825 C   0  0  0  0  0  0  0  0  0  0  0  0
   15.7961    3.2778  -29.2655 H   0  0  0  0  0  0  0  0  0  0  0  0
   18.3731    6.5212  -31.5367 H   0  0  0  0  0  0  0  0  0  0  0  0
   16.2104    8.2755  -30.4399 N   0  0  0  0  0  0  0  0  0  0  0  0
   16.9812    9.1565  -31.2678 C   0  0  0  0  0  0  0  0  0  0  0  0
   16.2942   10.1199  -32.1790 C   0  0  0  0  0  0  0  0  0  0  0  0
   18.2410    9.0965  -31.2672 O   0  0  0  0  0  0  0  0  0  0  0  0
   15.1700    8.3621  -30.4731 H   0  0  0  0  0  0  0  0  0  0  0  0
   18.7573    5.5031  -27.3677 C   0  0  0  0  0  0  0  0  0  0  0  0
   19.6052    4.5874  -28.0392 O   0  0  0  0  0  0  0  0  0  0  0  0
   20.6075    5.2337  -28.8070 C   0  0  0  0  0  0  0  0  0  0  0  0
   20.4932    6.6473  -28.6349 O   0  0  0  0  0  0  0  0  0  0  0  0
   21.6542    7.3744  -28.9937 C   0  0  0  0  0  0  0  0  0  0  0  0
   22.8596    7.0345  -28.0698 C   0  0  0  0  0  0  0  0  0  0  0  0
   22.6871    5.6471  -27.4121 C   0  0  0  0  0  0  0  0  0  0  0  0
   23.9398    5.1332  -27.0423 O   0  0  0  0  0  0  0  0  0  0  0  0
   22.0038    4.6781  -28.3816 C   0  0  0  0  0  0  0  0  0  0  0  0
   24.1385    5.4795  -26.1334 H   0  0  0  0  0  0  0  0  0  0  0  0
   21.8851    3.3518  -27.7550 N   0  0  0  0  0  0  0  0  0  0  0  0
   22.2811    2.1139  -28.3665 C   0  0  0  0  0  0  0  0  0  0  0  0
   23.1099    2.0683  -29.6139 C   0  0  0  0  0  0  0  0  0  0  0  0
   21.9069    1.0268  -27.8476 O   0  0  0  0  0  0  0  0  0  0  0  0
   21.4699    3.2954  -26.7955 H   0  0  0  0  0  0  0  0  0  0  0  0
   21.9714    7.2890  -30.5010 C   0  0  0  0  0  0  0  0  0  0  0  0
   20.8551    7.6953  -31.2407 O   0  0  0  0  0  0  0  0  0  0  0  0
   21.1467    7.7228  -32.1884 H   0  0  0  0  0  0  0  0  0  0  0  0
   22.9167    8.0151  -27.0447 O   0  0  0  0  0  0  0  0  0  0  0  0
   22.2991    7.5959  -25.8418 C   0  0  0  0  0  0  0  0  0  0  0  0
   21.0779    8.3305  -25.7067 O   0  0  0  0  0  0  0  0  0  0  0  0
   20.6779    9.0209  -24.5509 C   0  0  0  0  0  0  0  0  0  0  0  0
   21.3512    8.8554  -23.4052 C   0  0  0  0  0  0  0  0  0  0  0  0
   22.4737    7.8654  -23.3278 C   0  0  0  0  0  0  0  0  0  0  0  0
   23.3224    8.2140  -22.2661 O   0  0  0  0  0  0  0  0  0  0  0  0
   23.2559    7.8701  -24.6550 C   0  0  0  0  0  0  0  0  0  0  0  0
   24.3040    6.9332  -24.6268 O   0  0  0  0  0  0  0  0  0  0  0  0
   23.7828    7.3830  -21.9810 H   0  0  0  0  0  0  0  0  0  0  0  0
   23.9027    6.0369  -24.4838 H   0  0  0  0  0  0  0  0  0  0  0  0
   19.5333    9.9459  -24.6724 C   0  0  0  0  0  0  0  0  0  0  0  0
   18.5993    9.8438  -23.8350 O   0  0  0  0  0  0  0  0  0  0  0  0
   19.4759   10.9565  -25.6956 N   0  0  0  0  0  0  0  0  0  0  0  0
   20.2797   11.0762  -26.3512 H   0  0  0  0  0  0  0  0  0  0  0  0
   18.3039   11.8137  -25.8940 C   0  0  0  0  0  0  0  0  0  0  0  0
   17.1775   11.0059  -26.4669 C   0  0  0  0  0  0  0  0  0  0  0  0
   17.2990   10.4459  -27.7332 O   0  0  0  0  0  0  0  0  0  0  0  0
   16.1215   10.8229  -25.8053 O   0  0  0  0  0  0  0  0  0  0  0  0
   18.6682   12.9886  -26.8151 C   0  0  0  0  0  0  0  0  0  0  0  0
   18.2950   14.2090  -26.2317 O   0  0  0  0  0  0  0  0  0  0  0  0
   18.9755   14.4104  -25.5377 H   0  0  0  0  0  0  0  0  0  0  0  0
   12.5020    7.6197  -24.7922 O   0  0  0  0  0  0  0  0  0  0  0  0
   15.6370    8.2214  -22.2001 C   0  0  0  0  0  0  0  0  0  0  0  0
   15.1822    9.3410  -22.9433 O   0  0  0  0  0  0  0  0  0  0  0  0
   13.8689    9.1484  -23.4735 C   0  0  0  0  0  0  0  0  0  0  0  0
   13.5064    7.6631  -23.7841 C   0  0  0  0  0  0  0  0  0  0  0  0
   14.7943    6.9712  -24.2700 C   0  0  0  0  0  0  0  0  0  0  0  0
   14.5431    5.6386  -24.6408 O   0  0  0  0  0  0  0  0  0  0  0  0
   15.8534    6.9970  -23.1322 C   0  0  0  0  0  0  0  0  0  0  0  0
   14.2085    5.6540  -25.5759 H   0  0  0  0  0  0  0  0  0  0  0  0
   17.2516    6.9112  -23.6005 N   0  0  0  0  0  0  0  0  0  0  0  0
   18.0979    5.7579  -23.5244 C   0  0  0  0  0  0  0  0  0  0  0  0
   19.4144    5.8550  -22.8288 C   0  0  0  0  0  0  0  0  0  0  0  0
   17.8025    4.7075  -24.1545 O   0  0  0  0  0  0  0  0  0  0  0  0
   17.7383    7.8204  -23.7657 H   0  0  0  0  0  0  0  0  0  0  0  0
   12.8209    9.8446  -22.5902 C   0  0  0  0  0  0  0  0  0  0  0  0
   11.7105    9.0189  -22.3798 O   0  0  0  0  0  0  0  0  0  0  0  0
   11.0719    9.5487  -21.8364 H   0  0  0  0  0  0  0  0  0  0  0  0
   16.8438    8.5491  -21.5316 O   0  0  0  0  0  0  0  0  0  0  0  0
   16.6046    9.3689  -20.3999 C   0  0  0  0  0  0  0  0  0  0  0  0
   17.6671   13.5068  -20.5999 C   0  0  0  0  0  0  0  0  0  0  0  0
   16.6449   12.9379  -19.5855 C   0  0  0  0  0  0  0  0  0  0  0  0
   15.5963   13.8485  -19.3905 O   0  0  0  0  0  0  0  0  0  0  0  0
   16.0925   11.6922  -19.9928 O   0  0  0  0  0  0  0  0  0  0  0  0
   17.0000   10.8327  -20.6805 C   0  0  0  0  0  0  0  0  0  0  0  0
   18.4908   11.0848  -20.3419 C   0  0  0  0  0  0  0  0  0  0  0  0
   19.3037   10.2006  -21.0706 O   0  0  0  0  0  0  0  0  0  0  0  0
   18.8875   12.5470  -20.6681 C   0  0  0  0  0  0  0  0  0  0  0  0
   19.8712   12.9577  -19.7527 O   0  0  0  0  0  0  0  0  0  0  0  0
   15.9535   14.5848  -18.8272 H   0  0  0  0  0  0  0  0  0  0  0  0
   20.1922   10.1961  -20.6267 H   0  0  0  0  0  0  0  0  0  0  0  0
   20.3476   13.7268  -20.1646 H   0  0  0  0  0  0  0  0  0  0  0  0
   15.9422   15.0323  -23.7554 C   0  0  0  0  0  0  0  0  0  0  0  0
   16.7372   14.9550  -22.4915 C   0  0  0  0  0  0  0  0  0  0  0  0
   17.1356   16.0165  -21.9388 O   0  0  0  0  0  0  0  0  0  0  0  0
   17.0497   13.6751  -21.9267 N   0  0  0  0  0  0  0  0  0  0  0  0
   16.8761   12.8378  -22.5276 H   0  0  0  0  0  0  0  0  0  0  0  0
109110  1  0  0  0
110111  2  0  0  0
110112  1  0  0  0
112 97  1  0  0  0
112113  1  0  0  0
 97 98  1  0  0  0
 97104  1  0  0  0
 98 99  1  0  0  0
 98100  1  0  0  0
 99106  1  0  0  0
100101  1  0  0  0
101 96  1  0  0  0
101102  1  0  0  0
 96 95  1  0  0  0
 95 79  1  0  0  0
 79 80  1  0  0  0
 79 85  1  0  0  0
 80 81  1  0  0  0
 81 92  1  0  0  0
 81 82  1  0  0  0
 92 93  1  0  0  0
 93 94  1  0  0  0
 82 78  1  0  0  0
 82 83  1  0  0  0
 78  1  1  0  0  0
  1  2  1  0  0  0
  1  7  1  0  0  0
  2  3  1  0  0  0
  3 11  1  0  0  0
  3  4  1  0  0  0
 11 12  2  0  0  0
 11 13  1  0  0  0
 13 15  1  0  0  0
 13 14  1  0  0  0
 15 19  1  0  0  0
 15 16  1  0  0  0
 19 20  1  0  0  0
 20 21  1  0  0  0
 16 17  1  0  0  0
 16 18  2  0  0  0
  4 22  1  0  0  0
  4  5  1  0  0  0
 22 23  1  0  0  0
 23 24  1  0  0  0
 23 30  1  0  0  0
 24 25  1  0  0  0
 25 38  1  0  0  0
 25 26  1  0  0  0
 38 39  1  0  0  0
 39 40  1  0  0  0
 40 41  1  0  0  0
 40 46  1  0  0  0
 41 42  1  0  0  0
 42 53  1  0  0  0
 42 43  1  0  0  0
 53 54  1  0  0  0
 54 55  1  0  0  0
 43 56  1  0  0  0
 43 44  1  0  0  0
 56 57  1  0  0  0
 57 58  1  0  0  0
 57 63  1  0  0  0
 58 59  1  0  0  0
 59 67  1  0  0  0
 59 60  2  0  0  0
 67 68  2  0  0  0
 67 69  1  0  0  0
 69 71  1  0  0  0
 69 70  1  0  0  0
 71 75  1  0  0  0
 71 72  1  0  0  0
 75 76  1  0  0  0
 76 77  1  0  0  0
 72 73  1  0  0  0
 72 74  2  0  0  0
 60 61  1  0  0  0
 61 62  1  0  0  0
 61 63  1  0  0  0
 62 65  1  0  0  0
 63 64  1  0  0  0
 64 66  1  0  0  0
 44 45  1  0  0  0
 44 46  1  0  0  0
 45 47  1  0  0  0
 46 48  1  0  0  0
 48 49  1  0  0  0
 48 52  1  0  0  0
 49 50  1  0  0  0
 49 51  2  0  0  0
 26 27  1  0  0  0
 26 28  1  0  0  0
 27 31  1  0  0  0
 28 29  1  0  0  0
 28 30  1  0  0  0
 29 32  1  0  0  0
 30 33  1  0  0  0
 33 34  1  0  0  0
 33 37  1  0  0  0
 34 35  1  0  0  0
 34 36  2  0  0  0
  5  6  1  0  0  0
  5  7  1  0  0  0
  6  9  1  0  0  0
  7  8  1  0  0  0
  8 10  1  0  0  0
 83 84  1  0  0  0
 83 85  1  0  0  0
 84 86  1  0  0  0
 85 87  1  0  0  0
 87 88  1  0  0  0
 87 91  1  0  0  0
 88 89  1  0  0  0
 88 90  2  0  0  0
102103  1  0  0  0
102104  1  0  0  0
103107  1  0  0  0
104105  1  0  0  0
105108  1  0  0  0
M  CHG 1  17  -1
M  CHG 1  73  -1
M  END
> <COMPND>
    ../0-casp/lQQhMR.pdb 

> <AUTHOR>
    GENERATED BY OPEN BABEL 3.1.0

> <MASTER>
        0    0    0    0    0    0    0    0  168    0  168    0

> <minimizedAffinity>
-7.02165

> <CNNscore>
0.3206444979

> <CNNaffinity>
5.9578485489

> <CNN_VS>
1.9103513956

> <CNNaffinity_variance>
2.1834683418

$$$$



113118  0  0  0  0  0  0  0  0999 V2000
   -4.2930   30.6301  -11.6194 C   0  0  0  0  0  0  0  0  0  0  0  0
   -3.3123   29.6963  -11.2110 O   0  0  0  0  0  0  0  0  0  0  0  0
   -3.8221   28.3676  -11.2727 C   0  0  0  0  0  0  0  0  0  0  0  0
   -4.6048   28.0670  -12.6035 C   0  0  0  0  0  0  0  0  0  0  0  0
   -4.2303   29.1077  -13.6757 C   0  0  0  0  0  0  0  0  0  0  0  0
   -2.8860   28.9237  -14.0449 O   0  0  0  0  0  0  0  0  0  0  0  0
   -4.4507   30.5554  -13.1541 C   0  0  0  0  0  0  0  0  0  0  0  0
   -5.7346   31.0031  -13.5114 O   0  0  0  0  0  0  0  0  0  0  0  0
   -2.7491   29.4180  -14.8941 H   0  0  0  0  0  0  0  0  0  0  0  0
   -5.6992   31.2313  -14.4769 H   0  0  0  0  0  0  0  0  0  0  0  0
   -2.6612   27.4283  -11.0474 C   0  0  0  0  0  0  0  0  0  0  0  0
   -2.0745   27.3816   -9.9315 O   0  0  0  0  0  0  0  0  0  0  0  0
   -2.2486   26.5538  -12.1118 N   0  0  0  0  0  0  0  0  0  0  0  0
   -2.7915   26.5702  -13.0042 H   0  0  0  0  0  0  0  0  0  0  0  0
   -1.1260   25.6139  -12.0122 C   0  0  0  0  0  0  0  0  0  0  0  0
   -0.1561   25.8264  -13.1455 C   0  0  0  0  0  0  0  0  0  0  0  0
   -0.4948   26.6053  -14.2447 O   0  0  0  0  0  0  0  0  0  0  0  0
    0.9782   25.2834  -13.1028 O   0  0  0  0  0  0  0  0  0  0  0  0
   -1.6325   24.1603  -11.9300 C   0  0  0  0  0  0  0  0  0  0  0  0
   -1.0821   23.5096  -10.8163 O   0  0  0  0  0  0  0  0  0  0  0  0
   -0.1321   23.3234  -11.0348 H   0  0  0  0  0  0  0  0  0  0  0  0
   -6.0083   28.1556  -12.3777 O   0  0  0  0  0  0  0  0  0  0  0  0
   -6.7715   27.7216  -13.4940 C   0  0  0  0  0  0  0  0  0  0  0  0
   -6.5351   26.3434  -13.7549 O   0  0  0  0  0  0  0  0  0  0  0  0
   -7.3738   25.4191  -13.0636 C   0  0  0  0  0  0  0  0  0  0  0  0
   -8.0817   25.9759  -11.7935 C   0  0  0  0  0  0  0  0  0  0  0  0
   -7.1174   26.2126  -10.7982 O   0  0  0  0  0  0  0  0  0  0  0  0
   -8.8553   27.2772  -12.0759 C   0  0  0  0  0  0  0  0  0  0  0  0
  -10.2033   26.9732  -12.3399 O   0  0  0  0  0  0  0  0  0  0  0  0
   -8.2606   28.0602  -13.2718 C   0  0  0  0  0  0  0  0  0  0  0  0
   -7.1605   25.4656  -10.1469 H   0  0  0  0  0  0  0  0  0  0  0  0
  -10.7195   27.8079  -12.1881 H   0  0  0  0  0  0  0  0  0  0  0  0
   -8.4227   29.5075  -13.0792 N   0  0  0  0  0  0  0  0  0  0  0  0
   -9.6234   30.2013  -13.4431 C   0  0  0  0  0  0  0  0  0  0  0  0
   -9.7099   31.6836  -13.2821 C   0  0  0  0  0  0  0  0  0  0  0  0
  -10.6295   29.5646  -13.8594 O   0  0  0  0  0  0  0  0  0  0  0  0
   -7.6152   30.0767  -12.7402 H   0  0  0  0  0  0  0  0  0  0  0  0
   -8.3385   24.7520  -14.0745 C   0  0  0  0  0  0  0  0  0  0  0  0
   -7.9951   23.4008  -14.3284 O   0  0  0  0  0  0  0  0  0  0  0  0
   -7.3760   23.2232  -15.5922 C   0  0  0  0  0  0  0  0  0  0  0  0
   -5.9830   23.5188  -15.4791 O   0  0  0  0  0  0  0  0  0  0  0  0
   -5.1881   22.9930  -16.5266 C   0  0  0  0  0  0  0  0  0  0  0  0
   -5.1876   21.4367  -16.5285 C   0  0  0  0  0  0  0  0  0  0  0  0
   -6.4386   20.8754  -15.8165 C   0  0  0  0  0  0  0  0  0  0  0  0
   -6.7044   19.5739  -16.2698 O   0  0  0  0  0  0  0  0  0  0  0  0
   -7.6530   21.7685  -16.0883 C   0  0  0  0  0  0  0  0  0  0  0  0
   -6.1717   18.9555  -15.7045 H   0  0  0  0  0  0  0  0  0  0  0  0
   -8.8433   21.1975  -15.4380 N   0  0  0  0  0  0  0  0  0  0  0  0
  -10.0269   20.7608  -16.1246 C   0  0  0  0  0  0  0  0  0  0  0  0
  -10.0710   20.5930  -17.6129 C   0  0  0  0  0  0  0  0  0  0  0  0
  -11.0709   20.5251  -15.4571 O   0  0  0  0  0  0  0  0  0  0  0  0
   -8.8410   21.1108  -14.3946 H   0  0  0  0  0  0  0  0  0  0  0  0
   -5.5098   23.6250  -17.8966 C   0  0  0  0  0  0  0  0  0  0  0  0
   -5.4816   25.0200  -17.7897 O   0  0  0  0  0  0  0  0  0  0  0  0
   -5.5882   25.3700  -18.7117 H   0  0  0  0  0  0  0  0  0  0  0  0
   -4.0345   20.9976  -15.8261 O   0  0  0  0  0  0  0  0  0  0  0  0
   -2.8629   21.0110  -16.6207 C   0  0  0  0  0  0  0  0  0  0  0  0
   -3.2659   20.8408  -17.9837 O   0  0  0  0  0  0  0  0  0  0  0  0
   -2.7102   19.9099  -18.8766 C   0  0  0  0  0  0  0  0  0  0  0  0
   -1.5963   19.2451  -18.5440 C   0  0  0  0  0  0  0  0  0  0  0  0
   -0.8877   19.5579  -17.2609 C   0  0  0  0  0  0  0  0  0  0  0  0
   -0.1038   18.4556  -16.8876 O   0  0  0  0  0  0  0  0  0  0  0  0
   -1.9237   19.8675  -16.1636 C   0  0  0  0  0  0  0  0  0  0  0  0
   -1.2921   20.1899  -14.9493 O   0  0  0  0  0  0  0  0  0  0  0  0
    0.6278   18.8034  -16.3153 H   0  0  0  0  0  0  0  0  0  0  0  0
   -0.7290   20.9918  -15.1067 H   0  0  0  0  0  0  0  0  0  0  0  0
   -3.4229   19.6778  -20.1490 C   0  0  0  0  0  0  0  0  0  0  0  0
   -3.7080   20.6780  -20.8577 O   0  0  0  0  0  0  0  0  0  0  0  0
   -3.7716   18.3551  -20.5965 N   0  0  0  0  0  0  0  0  0  0  0  0
   -3.4809   17.5246  -20.0343 H   0  0  0  0  0  0  0  0  0  0  0  0
   -4.5673   18.1140  -21.8033 C   0  0  0  0  0  0  0  0  0  0  0  0
   -6.0177   18.0005  -21.4387 C   0  0  0  0  0  0  0  0  0  0  0  0
   -6.3933   17.3085  -20.2933 O   0  0  0  0  0  0  0  0  0  0  0  0
   -6.9013   18.5355  -22.1592 O   0  0  0  0  0  0  0  0  0  0  0  0
   -4.0715   16.8415  -22.5081 C   0  0  0  0  0  0  0  0  0  0  0  0
   -4.5416   15.6955  -21.8490 O   0  0  0  0  0  0  0  0  0  0  0  0
   -5.4937   15.5902  -22.1093 H   0  0  0  0  0  0  0  0  0  0  0  0
   -3.8638   31.9280  -11.2354 O   0  0  0  0  0  0  0  0  0  0  0  0
   -6.0980   34.1754   -8.6150 C   0  0  0  0  0  0  0  0  0  0  0  0
   -5.2893   34.8747   -9.5475 O   0  0  0  0  0  0  0  0  0  0  0  0
   -4.8982   34.0575  -10.6530 C   0  0  0  0  0  0  0  0  0  0  0  0
   -4.7706   32.5381  -10.3229 C   0  0  0  0  0  0  0  0  0  0  0  0
   -4.2452   32.4274   -8.8789 C   0  0  0  0  0  0  0  0  0  0  0  0
   -4.0329   31.0850   -8.5198 O   0  0  0  0  0  0  0  0  0  0  0  0
   -5.2775   33.0626   -7.9054 C   0  0  0  0  0  0  0  0  0  0  0  0
   -3.1338   30.8313   -8.8574 H   0  0  0  0  0  0  0  0  0  0  0  0
   -4.6993   33.5415   -6.6333 N   0  0  0  0  0  0  0  0  0  0  0  0
   -3.4251   34.1758   -6.4714 C   0  0  0  0  0  0  0  0  0  0  0  0
   -2.4301   33.5977   -5.5215 C   0  0  0  0  0  0  0  0  0  0  0  0
   -3.1919   35.2870   -7.0176 O   0  0  0  0  0  0  0  0  0  0  0  0
   -5.1332   33.1665   -5.7605 H   0  0  0  0  0  0  0  0  0  0  0  0
   -5.7960   34.3286  -11.8711 C   0  0  0  0  0  0  0  0  0  0  0  0
   -5.1496   33.9769  -13.0618 O   0  0  0  0  0  0  0  0  0  0  0  0
   -5.7745   34.2131  -13.7949 H   0  0  0  0  0  0  0  0  0  0  0  0
   -6.6220   35.0836   -7.6603 O   0  0  0  0  0  0  0  0  0  0  0  0
   -7.9764   34.7943   -7.3572 C   0  0  0  0  0  0  0  0  0  0  0  0
  -10.7869   38.0075   -7.6184 C   0  0  0  0  0  0  0  0  0  0  0  0
  -11.1736   36.5702   -7.1918 C   0  0  0  0  0  0  0  0  0  0  0  0
  -12.4379   36.2369   -7.6989 O   0  0  0  0  0  0  0  0  0  0  0  0
  -10.2388   35.5909   -7.6276 O   0  0  0  0  0  0  0  0  0  0  0  0
   -8.8777   36.0182   -7.6174 C   0  0  0  0  0  0  0  0  0  0  0  0
   -8.5792   37.1576   -6.6109 C   0  0  0  0  0  0  0  0  0  0  0  0
   -7.2222   37.5145   -6.6799 O   0  0  0  0  0  0  0  0  0  0  0  0
   -9.4602   38.3973   -6.9089 C   0  0  0  0  0  0  0  0  0  0  0  0
   -9.7397   39.0487   -5.6957 O   0  0  0  0  0  0  0  0  0  0  0  0
  -13.1073   36.7271   -7.1524 H   0  0  0  0  0  0  0  0  0  0  0  0
   -7.0166   38.0219   -5.8512 H   0  0  0  0  0  0  0  0  0  0  0  0
   -9.9915   39.9838   -5.9199 H   0  0  0  0  0  0  0  0  0  0  0  0
  -11.5699   38.1844  -11.4413 C   0  0  0  0  0  0  0  0  0  0  0  0
  -11.7679   38.2897   -9.9632 C   0  0  0  0  0  0  0  0  0  0  0  0
  -12.9125   38.5545   -9.5041 O   0  0  0  0  0  0  0  0  0  0  0  0
  -10.6530   38.1008   -9.0824 N   0  0  0  0  0  0  0  0  0  0  0  0
   -9.7028   38.0904   -9.5176 H   0  0  0  0  0  0  0  0  0  0  0  0
109110  1  0  0  0
110111  2  0  0  0
110112  1  0  0  0
112 97  1  0  0  0
112113  1  0  0  0
 97 98  1  0  0  0
 97104  1  0  0  0
 98 99  1  0  0  0
 98100  1  0  0  0
 99106  1  0  0  0
100101  1  0  0  0
101 96  1  0  0  0
101102  1  0  0  0
 96 95  1  0  0  0
 95 79  1  0  0  0
 79 80  1  0  0  0
 79 85  1  0  0  0
 80 81  1  0  0  0
 81 92  1  0  0  0
 81 82  1  0  0  0
 92 93  1  0  0  0
 93 94  1  0  0  0
 82 78  1  0  0  0
 82 83  1  0  0  0
 78  1  1  0  0  0
  1  2  1  0  0  0
  1  7  1  0  0  0
  2  3  1  0  0  0
  3 11  1  0  0  0
  3  4  1  0  0  0
 11 12  2  0  0  0
 11 13  1  0  0  0
 13 15  1  0  0  0
 13 14  1  0  0  0
 15 19  1  0  0  0
 15 16  1  0  0  0
 19 20  1  0  0  0
 20 21  1  0  0  0
 16 17  1  0  0  0
 16 18  2  0  0  0
  4 22  1  0  0  0
  4  5  1  0  0  0
 22 23  1  0  0  0
 23 24  1  0  0  0
 23 30  1  0  0  0
 24 25  1  0  0  0
 25 38  1  0  0  0
 25 26  1  0  0  0
 38 39  1  0  0  0
 39 40  1  0  0  0
 40 41  1  0  0  0
 40 46  1  0  0  0
 41 42  1  0  0  0
 42 53  1  0  0  0
 42 43  1  0  0  0
 53 54  1  0  0  0
 54 55  1  0  0  0
 43 56  1  0  0  0
 43 44  1  0  0  0
 56 57  1  0  0  0
 57 58  1  0  0  0
 57 63  1  0  0  0
 58 59  1  0  0  0
 59 67  1  0  0  0
 59 60  2  0  0  0
 67 68  2  0  0  0
 67 69  1  0  0  0
 69 71  1  0  0  0
 69 70  1  0  0  0
 71 75  1  0  0  0
 71 72  1  0  0  0
 75 76  1  0  0  0
 76 77  1  0  0  0
 72 73  1  0  0  0
 72 74  2  0  0  0
 60 61  1  0  0  0
 61 62  1  0  0  0
 61 63  1  0  0  0
 62 65  1  0  0  0
 63 64  1  0  0  0
 64 66  1  0  0  0
 44 45  1  0  0  0
 44 46  1  0  0  0
 45 47  1  0  0  0
 46 48  1  0  0  0
 48 49  1  0  0  0
 48 52  1  0  0  0
 49 50  1  0  0  0
 49 51  2  0  0  0
 26 27  1  0  0  0
 26 28  1  0  0  0
 27 31  1  0  0  0
 28 29  1  0  0  0
 28 30  1  0  0  0
 29 32  1  0  0  0
 30 33  1  0  0  0
 33 34  1  0  0  0
 33 37  1  0  0  0
 34 35  1  0  0  0
 34 36  2  0  0  0
  5  6  1  0  0  0
  5  7  1  0  0  0
  6  9  1  0  0  0
  7  8  1  0  0  0
  8 10  1  0  0  0
 83 84  1  0  0  0
 83 85  1  0  0  0
 84 86  1  0  0  0
 85 87  1  0  0  0
 87 88  1  0  0  0
 87 91  1  0  0  0
 88 89  1  0  0  0
 88 90  2  0  0  0
102103  1  0  0  0
102104  1  0  0  0
103107  1  0  0  0
104105  1  0  0  0
105108  1  0  0  0
M  CHG 1  17  -1
M  CHG 1  73  -1
M  END
> <COMPND>
    ../0-casp/lQQhMR.pdb 

> <AUTHOR>
    GENERATED BY OPEN BABEL 3.1.0

> <MASTER>
        0    0    0    0    0    0    0    0  168    0  168    0

> <minimizedAffinity>
-9.40002

> <CNNscore>
0.3164663911

> <CNNaffinity>
5.1114530563

> <CNN_VS>
1.6176030636

> <CNNaffinity_variance>
2.1143460274

$$$$



113118  0  0  0  0  0  0  0  0999 V2000
   13.2897    7.8295  -25.2488 C   0  0  0  0  0  0  0  0  0  0  0  0
   12.5304    8.8643  -25.8434 O   0  0  0  0  0  0  0  0  0  0  0  0
   13.2431    9.4571  -26.9250 C   0  0  0  0  0  0  0  0  0  0  0  0
   13.9078    8.3996  -27.8810 C   0  0  0  0  0  0  0  0  0  0  0  0
   13.2459    7.0235  -27.6774 C   0  0  0  0  0  0  0  0  0  0  0  0
   11.9175    7.0803  -28.1350 O   0  0  0  0  0  0  0  0  0  0  0  0
   13.2814    6.5991  -26.1825 C   0  0  0  0  0  0  0  0  0  0  0  0
   14.4239    5.8190  -25.9328 O   0  0  0  0  0  0  0  0  0  0  0  0
   11.6045    6.1439  -28.2313 H   0  0  0  0  0  0  0  0  0  0  0  0
   14.2413    4.9172  -26.3055 H   0  0  0  0  0  0  0  0  0  0  0  0
   12.2875   10.3806  -27.6423 C   0  0  0  0  0  0  0  0  0  0  0  0
   11.8966   10.1233  -28.8140 O   0  0  0  0  0  0  0  0  0  0  0  0
   11.7935   11.5469  -26.9614 N   0  0  0  0  0  0  0  0  0  0  0  0
   12.0857   11.7022  -25.9705 H   0  0  0  0  0  0  0  0  0  0  0  0
   10.8765   12.5213  -27.5640 C   0  0  0  0  0  0  0  0  0  0  0  0
   11.4732   13.9043  -27.5237 C   0  0  0  0  0  0  0  0  0  0  0  0
   12.4062   14.3121  -28.4686 O   0  0  0  0  0  0  0  0  0  0  0  0
   11.1289   14.7036  -26.6149 O   0  0  0  0  0  0  0  0  0  0  0  0
    9.4885   12.4549  -26.8966 C   0  0  0  0  0  0  0  0  0  0  0  0
    9.5918   11.9395  -25.5964 O   0  0  0  0  0  0  0  0  0  0  0  0
    9.7593   10.9655  -25.6875 H   0  0  0  0  0  0  0  0  0  0  0  0
   15.2936    8.2686  -27.5794 O   0  0  0  0  0  0  0  0  0  0  0  0
   16.0140    7.5887  -28.5971 C   0  0  0  0  0  0  0  0  0  0  0  0
   15.7218    8.1457  -29.8729 O   0  0  0  0  0  0  0  0  0  0  0  0
   16.5425    9.2372  -30.2860 C   0  0  0  0  0  0  0  0  0  0  0  0
   17.2999    9.9767  -29.1442 C   0  0  0  0  0  0  0  0  0  0  0  0
   16.3685   10.6671  -28.3488 O   0  0  0  0  0  0  0  0  0  0  0  0
   18.1132    9.0135  -28.2598 C   0  0  0  0  0  0  0  0  0  0  0  0
   19.4428    8.9666  -28.7173 O   0  0  0  0  0  0  0  0  0  0  0  0
   17.5193    7.5838  -28.2569 C   0  0  0  0  0  0  0  0  0  0  0  0
   16.3999   11.6253  -28.6033 H   0  0  0  0  0  0  0  0  0  0  0  0
   19.9922    8.6243  -27.9643 H   0  0  0  0  0  0  0  0  0  0  0  0
   17.7381    6.9313  -26.9590 N   0  0  0  0  0  0  0  0  0  0  0  0
   17.6459    5.5108  -26.7880 C   0  0  0  0  0  0  0  0  0  0  0  0
   17.8172    4.9071  -25.4327 C   0  0  0  0  0  0  0  0  0  0  0  0
   17.4640    4.7568  -27.7826 O   0  0  0  0  0  0  0  0  0  0  0  0
   17.8886    7.5157  -26.1064 H   0  0  0  0  0  0  0  0  0  0  0  0
   17.4584    8.7755  -31.4460 C   0  0  0  0  0  0  0  0  0  0  0  0
   17.5397    7.3633  -31.5322 O   0  0  0  0  0  0  0  0  0  0  0  0
   18.8469    6.9100  -31.8450 C   0  0  0  0  0  0  0  0  0  0  0  0
   19.7961    7.8999  -31.4451 O   0  0  0  0  0  0  0  0  0  0  0  0
   21.1211    7.4180  -31.3132 C   0  0  0  0  0  0  0  0  0  0  0  0
   21.2459    6.3717  -30.1679 C   0  0  0  0  0  0  0  0  0  0  0  0
   19.8839    5.7084  -29.8645 C   0  0  0  0  0  0  0  0  0  0  0  0
   20.0841    4.4577  -29.2596 O   0  0  0  0  0  0  0  0  0  0  0  0
   19.0788    5.5282  -31.1551 C   0  0  0  0  0  0  0  0  0  0  0  0
   20.1629    4.6173  -28.2829 H   0  0  0  0  0  0  0  0  0  0  0  0
   17.8036    4.8581  -30.8541 N   0  0  0  0  0  0  0  0  0  0  0  0
   17.4226    3.5593  -31.3344 C   0  0  0  0  0  0  0  0  0  0  0  0
   18.4018    2.6279  -31.9816 C   0  0  0  0  0  0  0  0  0  0  0  0
   16.2206    3.1933  -31.2239 O   0  0  0  0  0  0  0  0  0  0  0  0
   17.1101    5.3647  -30.2552 H   0  0  0  0  0  0  0  0  0  0  0  0
   21.7270    6.9586  -32.6555 C   0  0  0  0  0  0  0  0  0  0  0  0
   22.4843    5.7986  -32.4577 O   0  0  0  0  0  0  0  0  0  0  0  0
   22.7588    5.4906  -33.3598 H   0  0  0  0  0  0  0  0  0  0  0  0
   21.6868    7.0494  -29.0008 O   0  0  0  0  0  0  0  0  0  0  0  0
   21.5641    6.2681  -27.8265 C   0  0  0  0  0  0  0  0  0  0  0  0
   20.7835    7.0187  -26.8904 O   0  0  0  0  0  0  0  0  0  0  0  0
   21.1373    7.2506  -25.5511 C   0  0  0  0  0  0  0  0  0  0  0  0
   22.1655    6.5882  -25.0056 C   0  0  0  0  0  0  0  0  0  0  0  0
   22.8824    5.5321  -25.7911 C   0  0  0  0  0  0  0  0  0  0  0  0
   24.1682    5.3550  -25.2576 O   0  0  0  0  0  0  0  0  0  0  0  0
   22.9758    5.9634  -27.2670 C   0  0  0  0  0  0  0  0  0  0  0  0
   23.6226    4.9828  -28.0398 O   0  0  0  0  0  0  0  0  0  0  0  0
   24.4533    4.4348  -25.4935 H   0  0  0  0  0  0  0  0  0  0  0  0
   23.0902    4.1479  -27.9734 H   0  0  0  0  0  0  0  0  0  0  0  0
   20.3642    8.2663  -24.8087 C   0  0  0  0  0  0  0  0  0  0  0  0
   20.2642    8.1374  -23.5608 O   0  0  0  0  0  0  0  0  0  0  0  0
   19.7533    9.3905  -25.4679 N   0  0  0  0  0  0  0  0  0  0  0  0
   19.8885    9.5253  -26.4944 H   0  0  0  0  0  0  0  0  0  0  0  0
   18.8983   10.3499  -24.7634 C   0  0  0  0  0  0  0  0  0  0  0  0
   17.4580    9.9744  -24.9474 C   0  0  0  0  0  0  0  0  0  0  0  0
   16.5437   10.9246  -25.3868 O   0  0  0  0  0  0  0  0  0  0  0  0
   17.0693    8.7993  -24.7142 O   0  0  0  0  0  0  0  0  0  0  0  0
   19.1719   11.7701  -25.2829 C   0  0  0  0  0  0  0  0  0  0  0  0
   18.8254   11.8766  -26.6385 O   0  0  0  0  0  0  0  0  0  0  0  0
   17.8358   11.9458  -26.6728 H   0  0  0  0  0  0  0  0  0  0  0  0
   12.6978    7.4995  -24.0010 O   0  0  0  0  0  0  0  0  0  0  0  0
   15.2014    9.2597  -21.2545 C   0  0  0  0  0  0  0  0  0  0  0  0
   14.8951   10.0002  -22.4252 O   0  0  0  0  0  0  0  0  0  0  0  0
   13.7275    9.5131  -23.0904 C   0  0  0  0  0  0  0  0  0  0  0  0
   13.4649    7.9865  -22.9049 C   0  0  0  0  0  0  0  0  0  0  0  0
   14.8383    7.2906  -22.8509 C   0  0  0  0  0  0  0  0  0  0  0  0
   14.6946    5.8955  -22.7544 O   0  0  0  0  0  0  0  0  0  0  0  0
   15.6316    7.8117  -21.6197 C   0  0  0  0  0  0  0  0  0  0  0  0
   14.5656    5.5509  -23.6771 H   0  0  0  0  0  0  0  0  0  0  0  0
   17.0986    7.6971  -21.7482 N   0  0  0  0  0  0  0  0  0  0  0  0
   17.8946    6.5718  -21.3577 C   0  0  0  0  0  0  0  0  0  0  0  0
   19.0208    6.7639  -20.3979 C   0  0  0  0  0  0  0  0  0  0  0  0
   17.7391    5.4550  -21.9199 O   0  0  0  0  0  0  0  0  0  0  0  0
   17.6188    8.5903  -21.8975 H   0  0  0  0  0  0  0  0  0  0  0  0
   12.5042   10.3747  -22.7374 C   0  0  0  0  0  0  0  0  0  0  0  0
   11.8880   10.8716  -23.8918 O   0  0  0  0  0  0  0  0  0  0  0  0
   11.1371   11.4401  -23.5805 H   0  0  0  0  0  0  0  0  0  0  0  0
   16.2333    9.9113  -20.5325 O   0  0  0  0  0  0  0  0  0  0  0  0
   15.7745   11.1174  -19.9454 C   0  0  0  0  0  0  0  0  0  0  0  0
   18.5010   14.4068  -19.7506 C   0  0  0  0  0  0  0  0  0  0  0  0
   17.0246   14.4960  -19.2928 C   0  0  0  0  0  0  0  0  0  0  0  0
   16.4912   15.7521  -19.6158 O   0  0  0  0  0  0  0  0  0  0  0  0
   16.2013   13.4920  -19.8734 O   0  0  0  0  0  0  0  0  0  0  0  0
   16.8383   12.2285  -20.0548 C   0  0  0  0  0  0  0  0  0  0  0  0
   18.0196   11.9700  -19.0861 C   0  0  0  0  0  0  0  0  0  0  0  0
   18.5857   10.7108  -19.3462 O   0  0  0  0  0  0  0  0  0  0  0  0
   19.1019   13.0692  -19.2356 C   0  0  0  0  0  0  0  0  0  0  0  0
   19.7118   13.2684  -17.9856 O   0  0  0  0  0  0  0  0  0  0  0  0
   16.8744   16.4036  -18.9711 H   0  0  0  0  0  0  0  0  0  0  0  0
   19.1267   10.4695  -18.5490 H   0  0  0  0  0  0  0  0  0  0  0  0
   20.5934   13.6943  -18.1577 H   0  0  0  0  0  0  0  0  0  0  0  0
   19.5020   15.4933  -23.3668 C   0  0  0  0  0  0  0  0  0  0  0  0
   19.5870   15.3000  -21.8867 C   0  0  0  0  0  0  0  0  0  0  0  0
   20.5320   15.8304  -21.2412 O   0  0  0  0  0  0  0  0  0  0  0  0
   18.6011   14.5037  -21.2171 N   0  0  0  0  0  0  0  0  0  0  0  0
   17.9708   13.9267  -21.8188 H   0  0  0  0  0  0  0  0  0  0  0  0
109110  1  0  0  0
110111  2  0  0  0
110112  1  0  0  0
112 97  1  0  0  0
112113  1  0  0  0
 97 98  1  0  0  0
 97104  1  0  0  0
 98 99  1  0  0  0
 98100  1  0  0  0
 99106  1  0  0  0
100101  1  0  0  0
101 96  1  0  0  0
101102  1  0  0  0
 96 95  1  0  0  0
 95 79  1  0  0  0
 79 80  1  0  0  0
 79 85  1  0  0  0
 80 81  1  0  0  0
 81 92  1  0  0  0
 81 82  1  0  0  0
 92 93  1  0  0  0
 93 94  1  0  0  0
 82 78  1  0  0  0
 82 83  1  0  0  0
 78  1  1  0  0  0
  1  2  1  0  0  0
  1  7  1  0  0  0
  2  3  1  0  0  0
  3 11  1  0  0  0
  3  4  1  0  0  0
 11 12  2  0  0  0
 11 13  1  0  0  0
 13 15  1  0  0  0
 13 14  1  0  0  0
 15 19  1  0  0  0
 15 16  1  0  0  0
 19 20  1  0  0  0
 20 21  1  0  0  0
 16 17  1  0  0  0
 16 18  2  0  0  0
  4 22  1  0  0  0
  4  5  1  0  0  0
 22 23  1  0  0  0
 23 24  1  0  0  0
 23 30  1  0  0  0
 24 25  1  0  0  0
 25 38  1  0  0  0
 25 26  1  0  0  0
 38 39  1  0  0  0
 39 40  1  0  0  0
 40 41  1  0  0  0
 40 46  1  0  0  0
 41 42  1  0  0  0
 42 53  1  0  0  0
 42 43  1  0  0  0
 53 54  1  0  0  0
 54 55  1  0  0  0
 43 56  1  0  0  0
 43 44  1  0  0  0
 56 57  1  0  0  0
 57 58  1  0  0  0
 57 63  1  0  0  0
 58 59  1  0  0  0
 59 67  1  0  0  0
 59 60  2  0  0  0
 67 68  2  0  0  0
 67 69  1  0  0  0
 69 71  1  0  0  0
 69 70  1  0  0  0
 71 75  1  0  0  0
 71 72  1  0  0  0
 75 76  1  0  0  0
 76 77  1  0  0  0
 72 73  1  0  0  0
 72 74  2  0  0  0
 60 61  1  0  0  0
 61 62  1  0  0  0
 61 63  1  0  0  0
 62 65  1  0  0  0
 63 64  1  0  0  0
 64 66  1  0  0  0
 44 45  1  0  0  0
 44 46  1  0  0  0
 45 47  1  0  0  0
 46 48  1  0  0  0
 48 49  1  0  0  0
 48 52  1  0  0  0
 49 50  1  0  0  0
 49 51  2  0  0  0
 26 27  1  0  0  0
 26 28  1  0  0  0
 27 31  1  0  0  0
 28 29  1  0  0  0
 28 30  1  0  0  0
 29 32  1  0  0  0
 30 33  1  0  0  0
 33 34  1  0  0  0
 33 37  1  0  0  0
 34 35  1  0  0  0
 34 36  2  0  0  0
  5  6  1  0  0  0
  5  7  1  0  0  0
  6  9  1  0  0  0
  7  8  1  0  0  0
  8 10  1  0  0  0
 83 84  1  0  0  0
 83 85  1  0  0  0
 84 86  1  0  0  0
 85 87  1  0  0  0
 87 88  1  0  0  0
 87 91  1  0  0  0
 88 89  1  0  0  0
 88 90  2  0  0  0
102103  1  0  0  0
102104  1  0  0  0
103107  1  0  0  0
104105  1  0  0  0
105108  1  0  0  0
M  CHG 1  17  -1
M  CHG 1  73  -1
M  END
> <COMPND>
    ../0-casp/lQQhMR.pdb 

> <AUTHOR>
    GENERATED BY OPEN BABEL 3.1.0

> <MASTER>
        0    0    0    0    0    0    0    0  168    0  168    0

> <minimizedAffinity>
-7.35030

> <CNNscore>
0.2695624232

> <CNNaffinity>
5.5738234520

> <CNN_VS>
1.5024933815

> <CNNaffinity_variance>
2.1481244564

$$$$



113118  0  0  0  0  0  0  0  0999 V2000
   -9.9127   -6.4809   25.4809 C   0  0  0  0  0  0  0  0  0  0  0  0
   -9.9276   -7.4559   26.5055 O   0  0  0  0  0  0  0  0  0  0  0  0
   -9.9299   -6.8400   27.7899 C   0  0  0  0  0  0  0  0  0  0  0  0
  -10.9512   -5.6490   27.9026 C   0  0  0  0  0  0  0  0  0  0  0  0
  -11.9958   -5.7489   26.7748 C   0  0  0  0  0  0  0  0  0  0  0  0
  -12.7990   -6.8826   26.9915 O   0  0  0  0  0  0  0  0  0  0  0  0
  -11.3116   -5.8337   25.3816 C   0  0  0  0  0  0  0  0  0  0  0  0
  -11.1899   -4.5470   24.8284 O   0  0  0  0  0  0  0  0  0  0  0  0
  -13.6017   -6.7824   26.4172 H   0  0  0  0  0  0  0  0  0  0  0  0
  -12.0910   -4.2907   24.5002 H   0  0  0  0  0  0  0  0  0  0  0  0
  -10.1767   -7.9257   28.8102 C   0  0  0  0  0  0  0  0  0  0  0  0
  -11.3500   -8.2970   29.0882 O   0  0  0  0  0  0  0  0  0  0  0  0
   -9.0538   -8.5641   29.4420 N   0  0  0  0  0  0  0  0  0  0  0  0
   -8.0927   -8.2795   29.1476 H   0  0  0  0  0  0  0  0  0  0  0  0
   -9.1736   -9.6166   30.4575 C   0  0  0  0  0  0  0  0  0  0  0  0
   -8.0599   -9.5073   31.4666 C   0  0  0  0  0  0  0  0  0  0  0  0
   -7.0966  -10.5012   31.5840 O   0  0  0  0  0  0  0  0  0  0  0  0
   -8.0032   -8.5037   32.2234 O   0  0  0  0  0  0  0  0  0  0  0  0
   -9.2430  -11.0091   29.7997 C   0  0  0  0  0  0  0  0  0  0  0  0
   -8.2874  -11.1194   28.7793 O   0  0  0  0  0  0  0  0  0  0  0  0
   -8.6198  -10.5785   28.0166 H   0  0  0  0  0  0  0  0  0  0  0  0
  -10.2716   -4.4052   27.7618 O   0  0  0  0  0  0  0  0  0  0  0  0
   -9.7661   -3.9143   28.9949 C   0  0  0  0  0  0  0  0  0  0  0  0
   -8.4679   -4.4382   29.2464 O   0  0  0  0  0  0  0  0  0  0  0  0
   -7.3739   -3.6896   28.7186 C   0  0  0  0  0  0  0  0  0  0  0  0
   -7.7288   -2.7060   27.5649 C   0  0  0  0  0  0  0  0  0  0  0  0
   -8.0825   -3.4472   26.4236 O   0  0  0  0  0  0  0  0  0  0  0  0
   -8.8835   -1.7574   27.9369 C   0  0  0  0  0  0  0  0  0  0  0  0
   -8.3572   -0.5450   28.4187 O   0  0  0  0  0  0  0  0  0  0  0  0
   -9.8209   -2.3721   29.0047 C   0  0  0  0  0  0  0  0  0  0  0  0
   -7.3073   -3.4442   25.8048 H   0  0  0  0  0  0  0  0  0  0  0  0
   -9.0771    0.1335   28.3320 H   0  0  0  0  0  0  0  0  0  0  0  0
  -11.2039   -1.9179   28.8073 N   0  0  0  0  0  0  0  0  0  0  0  0
  -11.7009   -0.6991   29.3757 C   0  0  0  0  0  0  0  0  0  0  0  0
  -13.1333   -0.3175   29.1938 C   0  0  0  0  0  0  0  0  0  0  0  0
  -10.9267    0.0810   29.9945 O   0  0  0  0  0  0  0  0  0  0  0  0
  -11.8822   -2.5327   28.3043 H   0  0  0  0  0  0  0  0  0  0  0  0
   -6.5981   -3.0300   29.8850 C   0  0  0  0  0  0  0  0  0  0  0  0
   -7.1548   -3.3541   31.1472 O   0  0  0  0  0  0  0  0  0  0  0  0
   -6.2782   -4.1314   31.9470 C   0  0  0  0  0  0  0  0  0  0  0  0
   -5.3254   -4.7818   31.1045 O   0  0  0  0  0  0  0  0  0  0  0  0
   -4.1663   -5.2378   31.7783 C   0  0  0  0  0  0  0  0  0  0  0  0
   -3.3314   -4.0591   32.3577 C   0  0  0  0  0  0  0  0  0  0  0  0
   -4.2066   -2.8034   32.5684 C   0  0  0  0  0  0  0  0  0  0  0  0
   -3.6266   -1.9726   33.5397 O   0  0  0  0  0  0  0  0  0  0  0  0
   -5.6160   -3.2040   33.0149 C   0  0  0  0  0  0  0  0  0  0  0  0
   -2.9846   -1.3799   33.0684 H   0  0  0  0  0  0  0  0  0  0  0  0
   -6.4229   -1.9961   33.2509 N   0  0  0  0  0  0  0  0  0  0  0  0
   -7.3004   -1.7980   34.3706 C   0  0  0  0  0  0  0  0  0  0  0  0
   -7.2850   -2.7000   35.5670 C   0  0  0  0  0  0  0  0  0  0  0  0
   -8.1240   -0.8431   34.3423 O   0  0  0  0  0  0  0  0  0  0  0  0
   -6.3691   -1.2223   32.5477 H   0  0  0  0  0  0  0  0  0  0  0  0
   -4.4675   -6.3573   32.7961 C   0  0  0  0  0  0  0  0  0  0  0  0
   -5.3284   -7.2980   32.2199 O   0  0  0  0  0  0  0  0  0  0  0  0
   -5.4023   -8.0413   32.8727 H   0  0  0  0  0  0  0  0  0  0  0  0
   -2.3096   -3.7445   31.4236 O   0  0  0  0  0  0  0  0  0  0  0  0
   -1.0071   -3.8691   31.9641 C   0  0  0  0  0  0  0  0  0  0  0  0
   -0.1642   -4.4008   30.9365 O   0  0  0  0  0  0  0  0  0  0  0  0
    0.7014   -5.4958   31.0923 C   0  0  0  0  0  0  0  0  0  0  0  0
    0.9395   -5.9930   32.3128 C   0  0  0  0  0  0  0  0  0  0  0  0
    0.3587   -5.3273   33.5234 C   0  0  0  0  0  0  0  0  0  0  0  0
    0.2996   -6.2547   34.5748 O   0  0  0  0  0  0  0  0  0  0  0  0
   -1.0538   -4.8067   33.1960 C   0  0  0  0  0  0  0  0  0  0  0  0
   -1.6207   -4.1532   34.3045 O   0  0  0  0  0  0  0  0  0  0  0  0
    0.3116   -5.7340   35.4188 H   0  0  0  0  0  0  0  0  0  0  0  0
   -1.0327   -3.3880   34.5359 H   0  0  0  0  0  0  0  0  0  0  0  0
    1.2858   -6.0811   29.8690 C   0  0  0  0  0  0  0  0  0  0  0  0
    0.5136   -6.6689   29.0677 O   0  0  0  0  0  0  0  0  0  0  0  0
    2.6897   -5.9758   29.5698 N   0  0  0  0  0  0  0  0  0  0  0  0
    3.3163   -5.4365   30.2077 H   0  0  0  0  0  0  0  0  0  0  0  0
    3.3028   -6.6373   28.4147 C   0  0  0  0  0  0  0  0  0  0  0  0
    3.9851   -7.8977   28.8568 C   0  0  0  0  0  0  0  0  0  0  0  0
    5.1092   -8.3531   28.1779 O   0  0  0  0  0  0  0  0  0  0  0  0
    3.5520   -8.5453   29.8463 O   0  0  0  0  0  0  0  0  0  0  0  0
    4.2930   -5.6808   27.7320 C   0  0  0  0  0  0  0  0  0  0  0  0
    3.6693   -4.4635   27.4187 O   0  0  0  0  0  0  0  0  0  0  0  0
    3.6045   -3.9525   28.2672 H   0  0  0  0  0  0  0  0  0  0  0  0
   -9.5832   -7.1215   24.2572 O   0  0  0  0  0  0  0  0  0  0  0  0
   -8.9336  -11.1817   24.2183 C   0  0  0  0  0  0  0  0  0  0  0  0
   -7.8810  -10.3492   23.7581 O   0  0  0  0  0  0  0  0  0  0  0  0
   -8.0248   -8.9953   24.1932 C   0  0  0  0  0  0  0  0  0  0  0  0
   -9.5004   -8.5352   24.4042 C   0  0  0  0  0  0  0  0  0  0  0  0
  -10.3563   -9.2435   23.3368 C   0  0  0  0  0  0  0  0  0  0  0  0
  -11.6981   -8.8308   23.4093 O   0  0  0  0  0  0  0  0  0  0  0  0
  -10.2794  -10.7812   23.5524 C   0  0  0  0  0  0  0  0  0  0  0  0
  -11.7714   -7.9845   22.8943 H   0  0  0  0  0  0  0  0  0  0  0  0
  -10.5434  -11.5797   22.3381 N   0  0  0  0  0  0  0  0  0  0  0  0
  -11.8291  -12.0045   21.8705 C   0  0  0  0  0  0  0  0  0  0  0  0
  -12.0864  -13.4561   21.6402 C   0  0  0  0  0  0  0  0  0  0  0  0
  -12.6936  -11.1561   21.5234 O   0  0  0  0  0  0  0  0  0  0  0  0
   -9.7239  -12.0835   21.9313 H   0  0  0  0  0  0  0  0  0  0  0  0
   -7.1355   -8.7227   25.4172 C   0  0  0  0  0  0  0  0  0  0  0  0
   -6.1403   -9.6988   25.5443 O   0  0  0  0  0  0  0  0  0  0  0  0
   -5.6371   -9.4737   26.3689 H   0  0  0  0  0  0  0  0  0  0  0  0
   -8.6299  -12.5376   23.9352 O   0  0  0  0  0  0  0  0  0  0  0  0
   -7.2444  -12.7206   23.6966 C   0  0  0  0  0  0  0  0  0  0  0  0
   -5.5852  -16.5782   24.5077 C   0  0  0  0  0  0  0  0  0  0  0  0
   -4.7559  -15.3933   23.9546 C   0  0  0  0  0  0  0  0  0  0  0  0
   -3.8036  -15.8551   23.0344 O   0  0  0  0  0  0  0  0  0  0  0  0
   -5.5560  -14.4037   23.3195 O   0  0  0  0  0  0  0  0  0  0  0  0
   -6.8307  -14.1887   23.9229 C   0  0  0  0  0  0  0  0  0  0  0  0
   -6.8913  -14.5623   25.4254 C   0  0  0  0  0  0  0  0  0  0  0  0
   -8.1822  -14.3255   25.9262 O   0  0  0  0  0  0  0  0  0  0  0  0
   -6.5152  -16.0510   25.6358 C   0  0  0  0  0  0  0  0  0  0  0  0
   -5.8769  -16.1787   26.8810 O   0  0  0  0  0  0  0  0  0  0  0  0
   -3.0831  -16.2938   23.5592 H   0  0  0  0  0  0  0  0  0  0  0  0
   -8.1057  -14.3013   26.9162 H   0  0  0  0  0  0  0  0  0  0  0  0
   -5.9534  -17.1327   27.1496 H   0  0  0  0  0  0  0  0  0  0  0  0
   -6.8818  -19.1035   21.8243 C   0  0  0  0  0  0  0  0  0  0  0  0
   -6.1888  -18.5865   23.0440 C   0  0  0  0  0  0  0  0  0  0  0  0
   -5.4641  -19.3616   23.7259 O   0  0  0  0  0  0  0  0  0  0  0  0
   -6.3642  -17.2183   23.4337 N   0  0  0  0  0  0  0  0  0  0  0  0
   -7.1277  -16.6854   22.9589 H   0  0  0  0  0  0  0  0  0  0  0  0
109110  1  0  0  0
110111  2  0  0  0
110112  1  0  0  0
112 97  1  0  0  0
112113  1  0  0  0
 97 98  1  0  0  0
 97104  1  0  0  0
 98 99  1  0  0  0
 98100  1  0  0  0
 99106  1  0  0  0
100101  1  0  0  0
101 96  1  0  0  0
101102  1  0  0  0
 96 95  1  0  0  0
 95 79  1  0  0  0
 79 80  1  0  0  0
 79 85  1  0  0  0
 80 81  1  0  0  0
 81 92  1  0  0  0
 81 82  1  0  0  0
 92 93  1  0  0  0
 93 94  1  0  0  0
 82 78  1  0  0  0
 82 83  1  0  0  0
 78  1  1  0  0  0
  1  2  1  0  0  0
  1  7  1  0  0  0
  2  3  1  0  0  0
  3 11  1  0  0  0
  3  4  1  0  0  0
 11 12  2  0  0  0
 11 13  1  0  0  0
 13 15  1  0  0  0
 13 14  1  0  0  0
 15 19  1  0  0  0
 15 16  1  0  0  0
 19 20  1  0  0  0
 20 21  1  0  0  0
 16 17  1  0  0  0
 16 18  2  0  0  0
  4 22  1  0  0  0
  4  5  1  0  0  0
 22 23  1  0  0  0
 23 24  1  0  0  0
 23 30  1  0  0  0
 24 25  1  0  0  0
 25 38  1  0  0  0
 25 26  1  0  0  0
 38 39  1  0  0  0
 39 40  1  0  0  0
 40 41  1  0  0  0
 40 46  1  0  0  0
 41 42  1  0  0  0
 42 53  1  0  0  0
 42 43  1  0  0  0
 53 54  1  0  0  0
 54 55  1  0  0  0
 43 56  1  0  0  0
 43 44  1  0  0  0
 56 57  1  0  0  0
 57 58  1  0  0  0
 57 63  1  0  0  0
 58 59  1  0  0  0
 59 67  1  0  0  0
 59 60  2  0  0  0
 67 68  2  0  0  0
 67 69  1  0  0  0
 69 71  1  0  0  0
 69 70  1  0  0  0
 71 75  1  0  0  0
 71 72  1  0  0  0
 75 76  1  0  0  0
 76 77  1  0  0  0
 72 73  1  0  0  0
 72 74  2  0  0  0
 60 61  1  0  0  0
 61 62  1  0  0  0
 61 63  1  0  0  0
 62 65  1  0  0  0
 63 64  1  0  0  0
 64 66  1  0  0  0
 44 45  1  0  0  0
 44 46  1  0  0  0
 45 47  1  0  0  0
 46 48  1  0  0  0
 48 49  1  0  0  0
 48 52  1  0  0  0
 49 50  1  0  0  0
 49 51  2  0  0  0
 26 27  1  0  0  0
 26 28  1  0  0  0
 27 31  1  0  0  0
 28 29  1  0  0  0
 28 30  1  0  0  0
 29 32  1  0  0  0
 30 33  1  0  0  0
 33 34  1  0  0  0
 33 37  1  0  0  0
 34 35  1  0  0  0
 34 36  2  0  0  0
  5  6  1  0  0  0
  5  7  1  0  0  0
  6  9  1  0  0  0
  7  8  1  0  0  0
  8 10  1  0  0  0
 83 84  1  0  0  0
 83 85  1  0  0  0
 84 86  1  0  0  0
 85 87  1  0  0  0
 87 88  1  0  0  0
 87 91  1  0  0  0
 88 89  1  0  0  0
 88 90  2  0  0  0
102103  1  0  0  0
102104  1  0  0  0
103107  1  0  0  0
104105  1  0  0  0
105108  1  0  0  0
M  CHG 1  17  -1
M  CHG 1  73  -1
M  END
> <COMPND>
    ../0-casp/lQQhMR.pdb 

> <AUTHOR>
    GENERATED BY OPEN BABEL 3.1.0

> <MASTER>
        0    0    0    0    0    0    0    0  168    0  168    0

> <minimizedAffinity>
-9.51429

> <CNNscore>
0.2293973416

> <CNNaffinity>
5.5915250778

> <CNN_VS>
1.2826809883

> <CNNaffinity_variance>
1.9117538929

$$$$



113118  0  0  0  0  0  0  0  0999 V2000
   -1.9099   53.4291   15.9171 C   0  0  0  0  0  0  0  0  0  0  0  0
   -1.7970   54.3752   14.8717 O   0  0  0  0  0  0  0  0  0  0  0  0
   -0.8914   55.4158   15.2269 C   0  0  0  0  0  0  0  0  0  0  0  0
    0.4395   54.8828   15.8741 C   0  0  0  0  0  0  0  0  0  0  0  0
    0.6210   53.3901   15.5399 C   0  0  0  0  0  0  0  0  0  0  0  0
    0.8573   53.2534   14.1604 O   0  0  0  0  0  0  0  0  0  0  0  0
   -0.6298   52.5657   15.9549 C   0  0  0  0  0  0  0  0  0  0  0  0
   -0.4554   52.0501   17.2510 O   0  0  0  0  0  0  0  0  0  0  0  0
    1.2180   52.3403   14.0179 H   0  0  0  0  0  0  0  0  0  0  0  0
    0.1689   51.2823   17.1716 H   0  0  0  0  0  0  0  0  0  0  0  0
   -0.6523   56.2474   13.9891 C   0  0  0  0  0  0  0  0  0  0  0  0
   -1.0507   57.4428   13.9265 O   0  0  0  0  0  0  0  0  0  0  0  0
    0.0707   55.6736   12.8864 N   0  0  0  0  0  0  0  0  0  0  0  0
    0.4422   54.7028   12.9899 H   0  0  0  0  0  0  0  0  0  0  0  0
    0.3467   56.3805   11.6304 C   0  0  0  0  0  0  0  0  0  0  0  0
   -0.7957   56.2064   10.6634 C   0  0  0  0  0  0  0  0  0  0  0  0
   -1.2681   54.9436   10.3292 O   0  0  0  0  0  0  0  0  0  0  0  0
   -1.3278   57.2200   10.1411 O   0  0  0  0  0  0  0  0  0  0  0  0
    1.6987   55.9378   11.0367 C   0  0  0  0  0  0  0  0  0  0  0  0
    2.7360   56.1629   11.9532 O   0  0  0  0  0  0  0  0  0  0  0  0
    2.8950   57.1424   11.9699 H   0  0  0  0  0  0  0  0  0  0  0  0
    0.3812   55.0109   17.2914 O   0  0  0  0  0  0  0  0  0  0  0  0
    1.6422   54.8085   17.9124 C   0  0  0  0  0  0  0  0  0  0  0  0
    2.5733   55.7953   17.4852 O   0  0  0  0  0  0  0  0  0  0  0  0
    2.6058   57.0014   18.2467 C   0  0  0  0  0  0  0  0  0  0  0  0
    1.3400   57.2854   19.1077 C   0  0  0  0  0  0  0  0  0  0  0  0
    0.2602   57.5720   18.2541 O   0  0  0  0  0  0  0  0  0  0  0  0
    0.9715   56.0993   20.0182 C   0  0  0  0  0  0  0  0  0  0  0  0
    1.5288   56.2975   21.2946 O   0  0  0  0  0  0  0  0  0  0  0  0
    1.4663   54.7492   19.4444 C   0  0  0  0  0  0  0  0  0  0  0  0
    0.1277   58.5551   18.2482 H   0  0  0  0  0  0  0  0  0  0  0  0
    1.0182   55.7214   21.9219 H   0  0  0  0  0  0  0  0  0  0  0  0
    0.5451   53.6622   19.8020 N   0  0  0  0  0  0  0  0  0  0  0  0
    0.6599   52.9304   21.0295 C   0  0  0  0  0  0  0  0  0  0  0  0
   -0.2665   51.7939   21.3133 C   0  0  0  0  0  0  0  0  0  0  0  0
    1.5117   53.2657   21.8973 O   0  0  0  0  0  0  0  0  0  0  0  0
   -0.1742   53.3476   19.1130 H   0  0  0  0  0  0  0  0  0  0  0  0
    3.9311   57.0643   19.0450 C   0  0  0  0  0  0  0  0  0  0  0  0
    5.0244   56.5472   18.3063 O   0  0  0  0  0  0  0  0  0  0  0  0
    5.8997   55.7649   19.1024 C   0  0  0  0  0  0  0  0  0  0  0  0
    5.1623   54.6995   19.7039 O   0  0  0  0  0  0  0  0  0  0  0  0
    5.9615   53.6272   20.1698 C   0  0  0  0  0  0  0  0  0  0  0  0
    6.6883   52.8968   19.0034 C   0  0  0  0  0  0  0  0  0  0  0  0
    6.8328   53.8165   17.7704 C   0  0  0  0  0  0  0  0  0  0  0  0
    7.9018   53.3820   16.9712 O   0  0  0  0  0  0  0  0  0  0  0  0
    7.0787   55.2631   18.2095 C   0  0  0  0  0  0  0  0  0  0  0  0
    7.5400   52.6969   16.3505 H   0  0  0  0  0  0  0  0  0  0  0  0
    7.2553   56.1174   17.0242 N   0  0  0  0  0  0  0  0  0  0  0  0
    8.4797   56.7716   16.6558 C   0  0  0  0  0  0  0  0  0  0  0  0
    9.7900   56.4361   17.3006 C   0  0  0  0  0  0  0  0  0  0  0  0
    8.4522   57.6705   15.7714 O   0  0  0  0  0  0  0  0  0  0  0  0
    6.4272   56.2762   16.4034 H   0  0  0  0  0  0  0  0  0  0  0  0
    6.8884   54.0338   21.3340 C   0  0  0  0  0  0  0  0  0  0  0  0
    6.4768   53.3945   22.5087 O   0  0  0  0  0  0  0  0  0  0  0  0
    7.1633   53.6050   23.1931 H   0  0  0  0  0  0  0  0  0  0  0  0
    5.9060   51.7704   18.6361 O   0  0  0  0  0  0  0  0  0  0  0  0
    6.4206   50.5508   19.1381 C   0  0  0  0  0  0  0  0  0  0  0  0
    5.7851   50.3014   20.3963 O   0  0  0  0  0  0  0  0  0  0  0  0
    6.4558   49.9681   21.5844 C   0  0  0  0  0  0  0  0  0  0  0  0
    7.7586   49.6593   21.5541 C   0  0  0  0  0  0  0  0  0  0  0  0
    8.4826   49.5776   20.2444 C   0  0  0  0  0  0  0  0  0  0  0  0
    9.8572   49.7514   20.4669 O   0  0  0  0  0  0  0  0  0  0  0  0
    7.9565   50.6723   19.2968 C   0  0  0  0  0  0  0  0  0  0  0  0
    8.5981   50.6095   18.0471 O   0  0  0  0  0  0  0  0  0  0  0  0
   10.3286   49.3074   19.7157 H   0  0  0  0  0  0  0  0  0  0  0  0
    8.4095   49.7169   17.6566 H   0  0  0  0  0  0  0  0  0  0  0  0
    5.6805   50.0161   22.8403 C   0  0  0  0  0  0  0  0  0  0  0  0
    6.1018   50.7562   23.7670 O   0  0  0  0  0  0  0  0  0  0  0  0
    4.4650   49.2653   23.0143 N   0  0  0  0  0  0  0  0  0  0  0  0
    4.0879   48.6992   22.2222 H   0  0  0  0  0  0  0  0  0  0  0  0
    3.7396   49.2210   24.2869 C   0  0  0  0  0  0  0  0  0  0  0  0
    2.6965   48.1445   24.2375 C   0  0  0  0  0  0  0  0  0  0  0  0
    1.8785   48.0214   23.1206 O   0  0  0  0  0  0  0  0  0  0  0  0
    2.5599   47.3426   25.1991 O   0  0  0  0  0  0  0  0  0  0  0  0
    3.1081   50.5923   24.5741 C   0  0  0  0  0  0  0  0  0  0  0  0
    2.1986   50.9398   23.5637 O   0  0  0  0  0  0  0  0  0  0  0  0
    1.3746   50.4124   23.7313 H   0  0  0  0  0  0  0  0  0  0  0  0
   -3.0427   52.6118   15.6617 O   0  0  0  0  0  0  0  0  0  0  0  0
   -5.7000   51.7416   18.6767 C   0  0  0  0  0  0  0  0  0  0  0  0
   -5.7598   50.9435   17.5053 O   0  0  0  0  0  0  0  0  0  0  0  0
   -4.5675   51.0323   16.7219 C   0  0  0  0  0  0  0  0  0  0  0  0
   -3.8157   52.3944   16.8373 C   0  0  0  0  0  0  0  0  0  0  0  0
   -4.8839   53.4931   16.9963 C   0  0  0  0  0  0  0  0  0  0  0  0
   -4.2946   54.7687   17.0380 O   0  0  0  0  0  0  0  0  0  0  0  0
   -5.6795   53.2516   18.3098 C   0  0  0  0  0  0  0  0  0  0  0  0
   -4.1519   55.0552   16.0976 H   0  0  0  0  0  0  0  0  0  0  0  0
   -7.0387   53.8298   18.3129 N   0  0  0  0  0  0  0  0  0  0  0  0
   -7.4040   55.1243   18.8059 C   0  0  0  0  0  0  0  0  0  0  0  0
   -8.4600   55.2424   19.8536 C   0  0  0  0  0  0  0  0  0  0  0  0
   -6.9418   56.1654   18.2675 O   0  0  0  0  0  0  0  0  0  0  0  0
   -7.8258   53.1560   18.1817 H   0  0  0  0  0  0  0  0  0  0  0  0
   -3.6546   49.8241   16.9866 C   0  0  0  0  0  0  0  0  0  0  0  0
   -2.5154   50.2017   17.7071 O   0  0  0  0  0  0  0  0  0  0  0  0
   -1.9667   49.3812   17.8049 H   0  0  0  0  0  0  0  0  0  0  0  0
   -6.8112   51.4535   19.5092 O   0  0  0  0  0  0  0  0  0  0  0  0
   -7.3876   50.1982   19.1899 C   0  0  0  0  0  0  0  0  0  0  0  0
  -11.6006   50.9270   19.2984 C   0  0  0  0  0  0  0  0  0  0  0  0
  -10.6759   51.0905   20.5295 C   0  0  0  0  0  0  0  0  0  0  0  0
  -11.3386   50.6739   21.6931 O   0  0  0  0  0  0  0  0  0  0  0  0
   -9.4620   50.3584   20.4136 O   0  0  0  0  0  0  0  0  0  0  0  0
   -8.9233   50.3002   19.0939 C   0  0  0  0  0  0  0  0  0  0  0  0
   -9.3504   51.4785   18.1830 C   0  0  0  0  0  0  0  0  0  0  0  0
   -8.7802   51.3293   16.9078 O   0  0  0  0  0  0  0  0  0  0  0  0
  -10.8939   51.5447   18.0596 C   0  0  0  0  0  0  0  0  0  0  0  0
  -11.2730   52.8897   17.9136 O   0  0  0  0  0  0  0  0  0  0  0  0
  -11.9967   51.3825   21.9207 H   0  0  0  0  0  0  0  0  0  0  0  0
   -8.8369   52.2155   16.4629 H   0  0  0  0  0  0  0  0  0  0  0  0
  -12.1781   52.8929   17.5027 H   0  0  0  0  0  0  0  0  0  0  0  0
  -13.5247   47.5726   18.7461 C   0  0  0  0  0  0  0  0  0  0  0  0
  -13.2469   49.0414   18.7749 C   0  0  0  0  0  0  0  0  0  0  0  0
  -14.1763   49.8573   18.5270 O   0  0  0  0  0  0  0  0  0  0  0  0
  -11.9245   49.5080   19.0717 N   0  0  0  0  0  0  0  0  0  0  0  0
  -11.1590   48.7965   19.0639 H   0  0  0  0  0  0  0  0  0  0  0  0
109110  1  0  0  0
110111  2  0  0  0
110112  1  0  0  0
112 97  1  0  0  0
112113  1  0  0  0
 97 98  1  0  0  0
 97104  1  0  0  0
 98 99  1  0  0  0
 98100  1  0  0  0
 99106  1  0  0  0
100101  1  0  0  0
101 96  1  0  0  0
101102  1  0  0  0
 96 95  1  0  0  0
 95 79  1  0  0  0
 79 80  1  0  0  0
 79 85  1  0  0  0
 80 81  1  0  0  0
 81 92  1  0  0  0
 81 82  1  0  0  0
 92 93  1  0  0  0
 93 94  1  0  0  0
 82 78  1  0  0  0
 82 83  1  0  0  0
 78  1  1  0  0  0
  1  2  1  0  0  0
  1  7  1  0  0  0
  2  3  1  0  0  0
  3 11  1  0  0  0
  3  4  1  0  0  0
 11 12  2  0  0  0
 11 13  1  0  0  0
 13 15  1  0  0  0
 13 14  1  0  0  0
 15 19  1  0  0  0
 15 16  1  0  0  0
 19 20  1  0  0  0
 20 21  1  0  0  0
 16 17  1  0  0  0
 16 18  2  0  0  0
  4 22  1  0  0  0
  4  5  1  0  0  0
 22 23  1  0  0  0
 23 24  1  0  0  0
 23 30  1  0  0  0
 24 25  1  0  0  0
 25 38  1  0  0  0
 25 26  1  0  0  0
 38 39  1  0  0  0
 39 40  1  0  0  0
 40 41  1  0  0  0
 40 46  1  0  0  0
 41 42  1  0  0  0
 42 53  1  0  0  0
 42 43  1  0  0  0
 53 54  1  0  0  0
 54 55  1  0  0  0
 43 56  1  0  0  0
 43 44  1  0  0  0
 56 57  1  0  0  0
 57 58  1  0  0  0
 57 63  1  0  0  0
 58 59  1  0  0  0
 59 67  1  0  0  0
 59 60  2  0  0  0
 67 68  2  0  0  0
 67 69  1  0  0  0
 69 71  1  0  0  0
 69 70  1  0  0  0
 71 75  1  0  0  0
 71 72  1  0  0  0
 75 76  1  0  0  0
 76 77  1  0  0  0
 72 73  1  0  0  0
 72 74  2  0  0  0
 60 61  1  0  0  0
 61 62  1  0  0  0
 61 63  1  0  0  0
 62 65  1  0  0  0
 63 64  1  0  0  0
 64 66  1  0  0  0
 44 45  1  0  0  0
 44 46  1  0  0  0
 45 47  1  0  0  0
 46 48  1  0  0  0
 48 49  1  0  0  0
 48 52  1  0  0  0
 49 50  1  0  0  0
 49 51  2  0  0  0
 26 27  1  0  0  0
 26 28  1  0  0  0
 27 31  1  0  0  0
 28 29  1  0  0  0
 28 30  1  0  0  0
 29 32  1  0  0  0
 30 33  1  0  0  0
 33 34  1  0  0  0
 33 37  1  0  0  0
 34 35  1  0  0  0
 34 36  2  0  0  0
  5  6  1  0  0  0
  5  7  1  0  0  0
  6  9  1  0  0  0
  7  8  1  0  0  0
  8 10  1  0  0  0
 83 84  1  0  0  0
 83 85  1  0  0  0
 84 86  1  0  0  0
 85 87  1  0  0  0
 87 88  1  0  0  0
 87 91  1  0  0  0
 88 89  1  0  0  0
 88 90  2  0  0  0
102103  1  0  0  0
102104  1  0  0  0
103107  1  0  0  0
104105  1  0  0  0
105108  1  0  0  0
M  CHG 1  17  -1
M  CHG 1  73  -1
M  END
> <COMPND>
    ../0-casp/lQQhMR.pdb 

> <AUTHOR>
    GENERATED BY OPEN BABEL 3.1.0

> <MASTER>
        0    0    0    0    0    0    0    0  168    0  168    0

> <minimizedAffinity>
-8.96895

> <CNNscore>
0.1809435636

> <CNNaffinity>
4.9784092903

> <CNN_VS>
0.9008111358

> <CNNaffinity_variance>
1.8943954706

$$$$



113118  0  0  0  0  0  0  0  0999 V2000
   13.8538    9.6557  -22.5410 C   0  0  0  0  0  0  0  0  0  0  0  0
   14.4293   10.2844  -21.4122 O   0  0  0  0  0  0  0  0  0  0  0  0
   15.1680   11.4395  -21.7984 C   0  0  0  0  0  0  0  0  0  0  0  0
   14.4002   12.3492  -22.8266 C   0  0  0  0  0  0  0  0  0  0  0  0
   12.8967   12.0152  -22.7975 C   0  0  0  0  0  0  0  0  0  0  0  0
   12.3623   12.4094  -21.5580 O   0  0  0  0  0  0  0  0  0  0  0  0
   12.6540   10.4974  -23.0287 C   0  0  0  0  0  0  0  0  0  0  0  0
   12.4378   10.2494  -24.3955 O   0  0  0  0  0  0  0  0  0  0  0  0
   11.3755   12.4229  -21.6596 H   0  0  0  0  0  0  0  0  0  0  0  0
   11.5125   10.5472  -24.5971 H   0  0  0  0  0  0  0  0  0  0  0  0
   15.5513   12.1728  -20.5351 C   0  0  0  0  0  0  0  0  0  0  0  0
   14.6680   12.6580  -19.7759 O   0  0  0  0  0  0  0  0  0  0  0  0
   16.9407   12.2840  -20.1816 N   0  0  0  0  0  0  0  0  0  0  0  0
   17.6463   11.8198  -20.7963 H   0  0  0  0  0  0  0  0  0  0  0  0
   17.4298   12.9865  -18.9896 C   0  0  0  0  0  0  0  0  0  0  0  0
   17.4700   14.4733  -19.2311 C   0  0  0  0  0  0  0  0  0  0  0  0
   17.0190   15.3697  -18.2706 O   0  0  0  0  0  0  0  0  0  0  0  0
   17.9113   14.9137  -20.3241 O   0  0  0  0  0  0  0  0  0  0  0  0
   18.7919   12.4220  -18.5398 C   0  0  0  0  0  0  0  0  0  0  0  0
   19.1571   11.3259  -19.3347 O   0  0  0  0  0  0  0  0  0  0  0  0
   18.5824   10.5664  -19.0557 H   0  0  0  0  0  0  0  0  0  0  0  0
   14.8775   12.1080  -24.1467 O   0  0  0  0  0  0  0  0  0  0  0  0
   14.8341   13.2675  -24.9655 C   0  0  0  0  0  0  0  0  0  0  0  0
   15.5415   14.3384  -24.3524 O   0  0  0  0  0  0  0  0  0  0  0  0
   16.9364   14.4187  -24.6419 C   0  0  0  0  0  0  0  0  0  0  0  0
   17.5889   13.1065  -25.1679 C   0  0  0  0  0  0  0  0  0  0  0  0
   17.6156   12.1597  -24.1288 O   0  0  0  0  0  0  0  0  0  0  0  0
   16.8348   12.5194  -26.3755 C   0  0  0  0  0  0  0  0  0  0  0  0
   17.4438   12.9566  -27.5660 O   0  0  0  0  0  0  0  0  0  0  0  0
   15.3408   12.9253  -26.3825 C   0  0  0  0  0  0  0  0  0  0  0  0
   18.5369   12.1342  -23.7621 H   0  0  0  0  0  0  0  0  0  0  0  0
   17.1646   12.3240  -28.2787 H   0  0  0  0  0  0  0  0  0  0  0  0
   14.5145   11.8609  -26.9673 N   0  0  0  0  0  0  0  0  0  0  0  0
   14.3762   11.6861  -28.3836 C   0  0  0  0  0  0  0  0  0  0  0  0
   13.4736   10.6254  -28.9227 C   0  0  0  0  0  0  0  0  0  0  0  0
   15.0462   12.3939  -29.1843 O   0  0  0  0  0  0  0  0  0  0  0  0
   13.9389   11.2524  -26.3431 H   0  0  0  0  0  0  0  0  0  0  0  0
   17.1999   15.6512  -25.5413 C   0  0  0  0  0  0  0  0  0  0  0  0
   16.3767   16.7513  -25.1942 O   0  0  0  0  0  0  0  0  0  0  0  0
   15.5039   17.1329  -26.2451 C   0  0  0  0  0  0  0  0  0  0  0  0
   15.4926   16.1096  -27.2419 O   0  0  0  0  0  0  0  0  0  0  0  0
   14.3798   16.1594  -28.1164 C   0  0  0  0  0  0  0  0  0  0  0  0
   13.0417   15.8935  -27.3674 C   0  0  0  0  0  0  0  0  0  0  0  0
   13.1707   16.2111  -25.8609 C   0  0  0  0  0  0  0  0  0  0  0  0
   11.9052   16.4850  -25.3189 O   0  0  0  0  0  0  0  0  0  0  0  0
   14.0897   17.4176  -25.6465 C   0  0  0  0  0  0  0  0  0  0  0  0
   11.5118   15.6151  -25.0467 H   0  0  0  0  0  0  0  0  0  0  0  0
   14.1682   17.7318  -24.2110 N   0  0  0  0  0  0  0  0  0  0  0  0
   13.8889   19.0166  -23.6329 C   0  0  0  0  0  0  0  0  0  0  0  0
   13.2247   20.1139  -24.4076 C   0  0  0  0  0  0  0  0  0  0  0  0
   14.2272   19.2377  -22.4381 O   0  0  0  0  0  0  0  0  0  0  0  0
   14.4613   16.9701  -23.5551 H   0  0  0  0  0  0  0  0  0  0  0  0
   14.3680   17.4253  -28.9981 C   0  0  0  0  0  0  0  0  0  0  0  0
   13.3550   17.3209  -29.9578 O   0  0  0  0  0  0  0  0  0  0  0  0
   13.3231   18.1968  -30.4223 H   0  0  0  0  0  0  0  0  0  0  0  0
   12.7241   14.5173  -27.5120 O   0  0  0  0  0  0  0  0  0  0  0  0
   11.4124   14.2994  -27.9980 C   0  0  0  0  0  0  0  0  0  0  0  0
   10.7670   15.5745  -28.0802 O   0  0  0  0  0  0  0  0  0  0  0  0
    9.4968   15.8685  -27.5577 C   0  0  0  0  0  0  0  0  0  0  0  0
    8.7100   14.8799  -27.1138 C   0  0  0  0  0  0  0  0  0  0  0  0
    9.1416   13.4519  -27.2575 C   0  0  0  0  0  0  0  0  0  0  0  0
    8.4597   12.6680  -26.3143 O   0  0  0  0  0  0  0  0  0  0  0  0
   10.6621   13.3491  -27.0321 C   0  0  0  0  0  0  0  0  0  0  0  0
   11.1066   12.0238  -27.1837 O   0  0  0  0  0  0  0  0  0  0  0  0
    8.4356   11.7433  -26.6723 H   0  0  0  0  0  0  0  0  0  0  0  0
   10.8905   11.7379  -28.1091 H   0  0  0  0  0  0  0  0  0  0  0  0
    9.1024   17.2897  -27.4863 C   0  0  0  0  0  0  0  0  0  0  0  0
    8.2003   17.6927  -28.2660 O   0  0  0  0  0  0  0  0  0  0  0  0
    9.7016   18.2003  -26.5464 N   0  0  0  0  0  0  0  0  0  0  0  0
   10.4070   17.8482  -25.8619 H   0  0  0  0  0  0  0  0  0  0  0  0
    9.3965   19.6336  -26.5313 C   0  0  0  0  0  0  0  0  0  0  0  0
   10.4337   20.3800  -27.3165 C   0  0  0  0  0  0  0  0  0  0  0  0
   11.6426   19.7684  -27.6267 O   0  0  0  0  0  0  0  0  0  0  0  0
   10.2152   21.5576  -27.7060 O   0  0  0  0  0  0  0  0  0  0  0  0
    9.3309   20.1365  -25.0806 C   0  0  0  0  0  0  0  0  0  0  0  0
    8.8759   21.4631  -25.0368 O   0  0  0  0  0  0  0  0  0  0  0  0
    7.8937   21.4299  -25.1762 H   0  0  0  0  0  0  0  0  0  0  0  0
   13.4175    8.3596  -22.1585 O   0  0  0  0  0  0  0  0  0  0  0  0
   15.9723    5.8578  -24.1890 C   0  0  0  0  0  0  0  0  0  0  0  0
   16.5146    7.0622  -23.6715 O   0  0  0  0  0  0  0  0  0  0  0  0
   15.6933    7.6387  -22.6536 C   0  0  0  0  0  0  0  0  0  0  0  0
   14.1700    7.3357  -22.8006 C   0  0  0  0  0  0  0  0  0  0  0  0
   13.8563    7.2952  -24.3084 C   0  0  0  0  0  0  0  0  0  0  0  0
   12.4832    7.0954  -24.5339 O   0  0  0  0  0  0  0  0  0  0  0  0
   14.6591    6.1402  -24.9705 C   0  0  0  0  0  0  0  0  0  0  0  0
   12.0453    7.9851  -24.4752 H   0  0  0  0  0  0  0  0  0  0  0  0
   14.9150    6.3263  -26.4133 N   0  0  0  0  0  0  0  0  0  0  0  0
   14.4953    5.4485  -27.4648 C   0  0  0  0  0  0  0  0  0  0  0  0
   15.5100    4.8840  -28.4020 C   0  0  0  0  0  0  0  0  0  0  0  0
   13.2695    5.2603  -27.6872 O   0  0  0  0  0  0  0  0  0  0  0  0
   15.6674    7.0060  -26.6634 H   0  0  0  0  0  0  0  0  0  0  0  0
   16.2372    7.2920  -21.2581 C   0  0  0  0  0  0  0  0  0  0  0  0
   15.6756    6.1024  -20.7797 O   0  0  0  0  0  0  0  0  0  0  0  0
   16.0468    5.9688  -19.8697 H   0  0  0  0  0  0  0  0  0  0  0  0
   16.9217    5.2300  -25.0346 O   0  0  0  0  0  0  0  0  0  0  0  0
   18.2381    5.3609  -24.5247 C   0  0  0  0  0  0  0  0  0  0  0  0
   20.7992    6.1128  -27.8664 C   0  0  0  0  0  0  0  0  0  0  0  0
   20.5144    4.6948  -27.3135 C   0  0  0  0  0  0  0  0  0  0  0  0
   21.6698    3.9035  -27.3886 O   0  0  0  0  0  0  0  0  0  0  0  0
   20.0598    4.7049  -25.9660 O   0  0  0  0  0  0  0  0  0  0  0  0
   19.2194    5.8069  -25.6274 C   0  0  0  0  0  0  0  0  0  0  0  0
   18.4651    6.4219  -26.8330 C   0  0  0  0  0  0  0  0  0  0  0  0
   17.6743    7.5007  -26.4036 O   0  0  0  0  0  0  0  0  0  0  0  0
   19.4633    6.9054  -27.9155 C   0  0  0  0  0  0  0  0  0  0  0  0
   18.8626    6.7534  -29.1766 O   0  0  0  0  0  0  0  0  0  0  0  0
   21.7901    3.6569  -28.3434 H   0  0  0  0  0  0  0  0  0  0  0  0
   17.0116    7.6745  -27.1227 H   0  0  0  0  0  0  0  0  0  0  0  0
   19.3420    7.3602  -29.8012 H   0  0  0  0  0  0  0  0  0  0  0  0
   24.1491    7.5641  -26.4766 C   0  0  0  0  0  0  0  0  0  0  0  0
   23.1534    7.0212  -27.4508 C   0  0  0  0  0  0  0  0  0  0  0  0
   23.5120    6.7659  -28.6329 O   0  0  0  0  0  0  0  0  0  0  0  0
   21.7981    6.8075  -27.0360 N   0  0  0  0  0  0  0  0  0  0  0  0
   21.5120    7.2249  -26.1215 H   0  0  0  0  0  0  0  0  0  0  0  0
109110  1  0  0  0
110111  2  0  0  0
110112  1  0  0  0
112 97  1  0  0  0
112113  1  0  0  0
 97 98  1  0  0  0
 97104  1  0  0  0
 98 99  1  0  0  0
 98100  1  0  0  0
 99106  1  0  0  0
100101  1  0  0  0
101 96  1  0  0  0
101102  1  0  0  0
 96 95  1  0  0  0
 95 79  1  0  0  0
 79 80  1  0  0  0
 79 85  1  0  0  0
 80 81  1  0  0  0
 81 92  1  0  0  0
 81 82  1  0  0  0
 92 93  1  0  0  0
 93 94  1  0  0  0
 82 78  1  0  0  0
 82 83  1  0  0  0
 78  1  1  0  0  0
  1  2  1  0  0  0
  1  7  1  0  0  0
  2  3  1  0  0  0
  3 11  1  0  0  0
  3  4  1  0  0  0
 11 12  2  0  0  0
 11 13  1  0  0  0
 13 15  1  0  0  0
 13 14  1  0  0  0
 15 19  1  0  0  0
 15 16  1  0  0  0
 19 20  1  0  0  0
 20 21  1  0  0  0
 16 17  1  0  0  0
 16 18  2  0  0  0
  4 22  1  0  0  0
  4  5  1  0  0  0
 22 23  1  0  0  0
 23 24  1  0  0  0
 23 30  1  0  0  0
 24 25  1  0  0  0
 25 38  1  0  0  0
 25 26  1  0  0  0
 38 39  1  0  0  0
 39 40  1  0  0  0
 40 41  1  0  0  0
 40 46  1  0  0  0
 41 42  1  0  0  0
 42 53  1  0  0  0
 42 43  1  0  0  0
 53 54  1  0  0  0
 54 55  1  0  0  0
 43 56  1  0  0  0
 43 44  1  0  0  0
 56 57  1  0  0  0
 57 58  1  0  0  0
 57 63  1  0  0  0
 58 59  1  0  0  0
 59 67  1  0  0  0
 59 60  2  0  0  0
 67 68  2  0  0  0
 67 69  1  0  0  0
 69 71  1  0  0  0
 69 70  1  0  0  0
 71 75  1  0  0  0
 71 72  1  0  0  0
 75 76  1  0  0  0
 76 77  1  0  0  0
 72 73  1  0  0  0
 72 74  2  0  0  0
 60 61  1  0  0  0
 61 62  1  0  0  0
 61 63  1  0  0  0
 62 65  1  0  0  0
 63 64  1  0  0  0
 64 66  1  0  0  0
 44 45  1  0  0  0
 44 46  1  0  0  0
 45 47  1  0  0  0
 46 48  1  0  0  0
 48 49  1  0  0  0
 48 52  1  0  0  0
 49 50  1  0  0  0
 49 51  2  0  0  0
 26 27  1  0  0  0
 26 28  1  0  0  0
 27 31  1  0  0  0
 28 29  1  0  0  0
 28 30  1  0  0  0
 29 32  1  0  0  0
 30 33  1  0  0  0
 33 34  1  0  0  0
 33 37  1  0  0  0
 34 35  1  0  0  0
 34 36  2  0  0  0
  5  6  1  0  0  0
  5  7  1  0  0  0
  6  9  1  0  0  0
  7  8  1  0  0  0
  8 10  1  0  0  0
 83 84  1  0  0  0
 83 85  1  0  0  0
 84 86  1  0  0  0
 85 87  1  0  0  0
 87 88  1  0  0  0
 87 91  1  0  0  0
 88 89  1  0  0  0
 88 90  2  0  0  0
102103  1  0  0  0
102104  1  0  0  0
103107  1  0  0  0
104105  1  0  0  0
105108  1  0  0  0
M  CHG 1  17  -1
M  CHG 1  73  -1
M  END
> <COMPND>
    ../0-casp/lQQhMR.pdb 

> <AUTHOR>
    GENERATED BY OPEN BABEL 3.1.0

> <MASTER>
        0    0    0    0    0    0    0    0  168    0  168    0

> <minimizedAffinity>
-8.17860

> <CNNscore>
0.1793096513

> <CNNaffinity>
5.1291260719

> <CNN_VS>
0.9197018147

> <CNNaffinity_variance>
3.5276939869

$$$$



113118  0  0  0  0  0  0  0  0999 V2000
    2.8364  -39.3346    4.6337 C   0  0  0  0  0  0  0  0  0  0  0  0
    1.4316  -39.4614    4.5282 O   0  0  0  0  0  0  0  0  0  0  0  0
    0.8479  -39.6995    5.8055 C   0  0  0  0  0  0  0  0  0  0  0  0
    1.4116  -38.7539    6.9289 C   0  0  0  0  0  0  0  0  0  0  0  0
    2.0913  -37.5293    6.2876 C   0  0  0  0  0  0  0  0  0  0  0  0
    1.1134  -36.7365    5.6611 O   0  0  0  0  0  0  0  0  0  0  0  0
    3.1723  -37.9622    5.2579 C   0  0  0  0  0  0  0  0  0  0  0  0
    4.4294  -38.0317    5.8834 O   0  0  0  0  0  0  0  0  0  0  0  0
    1.5265  -35.8515    5.4871 H   0  0  0  0  0  0  0  0  0  0  0  0
    4.7443  -37.0971    5.9967 H   0  0  0  0  0  0  0  0  0  0  0  0
   -0.6499  -39.5935    5.6436 C   0  0  0  0  0  0  0  0  0  0  0  0
   -1.4288  -40.2461    6.3914 O   0  0  0  0  0  0  0  0  0  0  0  0
   -1.1875  -38.7080    4.6463 N   0  0  0  0  0  0  0  0  0  0  0  0
   -0.5208  -38.1339    4.0832 H   0  0  0  0  0  0  0  0  0  0  0  0
   -2.6222  -38.5373    4.3891 C   0  0  0  0  0  0  0  0  0  0  0  0
   -2.8681  -38.2558    2.9294 C   0  0  0  0  0  0  0  0  0  0  0  0
   -4.1479  -38.3124    2.3923 O   0  0  0  0  0  0  0  0  0  0  0  0
   -1.8985  -37.9725    2.1791 O   0  0  0  0  0  0  0  0  0  0  0  0
   -3.2203  -37.4557    5.3103 C   0  0  0  0  0  0  0  0  0  0  0  0
   -3.8247  -36.4426    4.5520 O   0  0  0  0  0  0  0  0  0  0  0  0
   -3.0903  -35.9077    4.1528 H   0  0  0  0  0  0  0  0  0  0  0  0
    2.3886  -39.4417    7.7043 O   0  0  0  0  0  0  0  0  0  0  0  0
    2.8341  -38.6853    8.8207 C   0  0  0  0  0  0  0  0  0  0  0  0
    1.7502  -38.4045    9.6980 O   0  0  0  0  0  0  0  0  0  0  0  0
    1.4869  -39.3800   10.7054 C   0  0  0  0  0  0  0  0  0  0  0  0
    2.0669  -40.7990   10.4329 C   0  0  0  0  0  0  0  0  0  0  0  0
    1.3745  -41.3776    9.3547 O   0  0  0  0  0  0  0  0  0  0  0  0
    3.5733  -40.7660   10.1148 C   0  0  0  0  0  0  0  0  0  0  0  0
    4.3062  -41.0093   11.2908 O   0  0  0  0  0  0  0  0  0  0  0  0
    4.0105  -39.4109    9.5070 C   0  0  0  0  0  0  0  0  0  0  0  0
    0.7215  -42.0267    9.7238 H   0  0  0  0  0  0  0  0  0  0  0  0
    5.2105  -41.3061   11.0076 H   0  0  0  0  0  0  0  0  0  0  0  0
    5.1101  -39.5991    8.5513 N   0  0  0  0  0  0  0  0  0  0  0  0
    6.4776  -39.7141    8.9664 C   0  0  0  0  0  0  0  0  0  0  0  0
    7.5614  -39.8421    7.9469 C   0  0  0  0  0  0  0  0  0  0  0  0
    6.7735  -39.7526   10.1919 O   0  0  0  0  0  0  0  0  0  0  0  0
    4.9133  -39.5705    7.5259 H   0  0  0  0  0  0  0  0  0  0  0  0
    1.8751  -38.8017   12.0883 C   0  0  0  0  0  0  0  0  0  0  0  0
    3.0343  -37.9894   12.0210 O   0  0  0  0  0  0  0  0  0  0  0  0
    3.9136  -38.2014   13.1137 C   0  0  0  0  0  0  0  0  0  0  0  0
    5.2414  -38.3853   12.6198 O   0  0  0  0  0  0  0  0  0  0  0  0
    6.2562  -38.1909   13.5883 C   0  0  0  0  0  0  0  0  0  0  0  0
    6.3016  -36.7193   14.0928 C   0  0  0  0  0  0  0  0  0  0  0  0
    4.9440  -36.0127   13.8813 C   0  0  0  0  0  0  0  0  0  0  0  0
    4.8184  -34.9386   14.7760 O   0  0  0  0  0  0  0  0  0  0  0  0
    3.7906  -36.9966   14.0997 C   0  0  0  0  0  0  0  0  0  0  0  0
    5.2357  -34.1493   14.3419 H   0  0  0  0  0  0  0  0  0  0  0  0
    2.5057  -36.2980   13.9355 N   0  0  0  0  0  0  0  0  0  0  0  0
    1.4400  -36.2973   14.8984 C   0  0  0  0  0  0  0  0  0  0  0  0
    1.6291  -36.7932   16.2997 C   0  0  0  0  0  0  0  0  0  0  0  0
    0.3011  -35.8807   14.5517 O   0  0  0  0  0  0  0  0  0  0  0  0
    2.3424  -35.7691   13.0468 H   0  0  0  0  0  0  0  0  0  0  0  0
    6.2163  -39.2430   14.7159 C   0  0  0  0  0  0  0  0  0  0  0  0
    6.7587  -38.6998   15.8858 O   0  0  0  0  0  0  0  0  0  0  0  0
    6.6117  -39.3745   16.5979 H   0  0  0  0  0  0  0  0  0  0  0  0
    7.2903  -36.0291   13.3432 O   0  0  0  0  0  0  0  0  0  0  0  0
    8.5071  -36.7451   13.2391 C   0  0  0  0  0  0  0  0  0  0  0  0
    9.3894  -36.2426   14.2481 O   0  0  0  0  0  0  0  0  0  0  0  0
   10.7163  -35.8383   14.0279 C   0  0  0  0  0  0  0  0  0  0  0  0
   11.3104  -36.0994   12.8564 C   0  0  0  0  0  0  0  0  0  0  0  0
   10.5959  -36.9032   11.8126 C   0  0  0  0  0  0  0  0  0  0  0  0
   11.1521  -36.6228   10.5551 O   0  0  0  0  0  0  0  0  0  0  0  0
    9.0981  -36.5427   11.8219 C   0  0  0  0  0  0  0  0  0  0  0  0
    8.3911  -37.2975   10.8692 O   0  0  0  0  0  0  0  0  0  0  0  0
   10.9737  -37.4105    9.9795 H   0  0  0  0  0  0  0  0  0  0  0  0
    8.5010  -38.2558   11.1028 H   0  0  0  0  0  0  0  0  0  0  0  0
   11.3896  -35.0932   15.1105 C   0  0  0  0  0  0  0  0  0  0  0  0
   12.6481  -35.0809   15.1257 O   0  0  0  0  0  0  0  0  0  0  0  0
   10.6502  -34.3766   16.1161 N   0  0  0  0  0  0  0  0  0  0  0  0
    9.6080  -34.3405   16.0655 H   0  0  0  0  0  0  0  0  0  0  0  0
   11.2984  -33.7187   17.2540 C   0  0  0  0  0  0  0  0  0  0  0  0
   10.4238  -33.8287   18.4675 C   0  0  0  0  0  0  0  0  0  0  0  0
   10.5622  -34.9124   19.3267 O   0  0  0  0  0  0  0  0  0  0  0  0
    9.5674  -32.9406   18.7204 O   0  0  0  0  0  0  0  0  0  0  0  0
   11.5873  -32.2490   16.9101 C   0  0  0  0  0  0  0  0  0  0  0  0
   11.9564  -31.5349   18.0602 O   0  0  0  0  0  0  0  0  0  0  0  0
   12.8984  -31.7797   18.2548 H   0  0  0  0  0  0  0  0  0  0  0  0
    3.3941  -39.4282    3.3312 O   0  0  0  0  0  0  0  0  0  0  0  0
    1.8567  -42.1009    0.6106 C   0  0  0  0  0  0  0  0  0  0  0  0
    3.2691  -41.9986    0.6965 O   0  0  0  0  0  0  0  0  0  0  0  0
    3.7000  -41.3894    1.9156 C   0  0  0  0  0  0  0  0  0  0  0  0
    2.6917  -40.3635    2.5195 C   0  0  0  0  0  0  0  0  0  0  0  0
    2.0044  -39.6505    1.3395 C   0  0  0  0  0  0  0  0  0  0  0  0
    1.1242  -38.6534    1.7947 O   0  0  0  0  0  0  0  0  0  0  0  0
    1.2116  -40.6915    0.5001 C   0  0  0  0  0  0  0  0  0  0  0  0
    1.6671  -37.8382    1.9602 H   0  0  0  0  0  0  0  0  0  0  0  0
    0.9972  -40.3011   -0.9083 N   0  0  0  0  0  0  0  0  0  0  0  0
    1.9521  -39.6571   -1.7602 C   0  0  0  0  0  0  0  0  0  0  0  0
    1.5987  -38.3654   -2.4183 C   0  0  0  0  0  0  0  0  0  0  0  0
    3.0281  -40.2373   -2.0650 O   0  0  0  0  0  0  0  0  0  0  0  0
    0.0040  -40.2606   -1.2286 H   0  0  0  0  0  0  0  0  0  0  0  0
    4.1403  -42.4584    2.9289 C   0  0  0  0  0  0  0  0  0  0  0  0
    5.0867  -41.9452    3.8235 O   0  0  0  0  0  0  0  0  0  0  0  0
    5.3433  -42.6986    4.4154 H   0  0  0  0  0  0  0  0  0  0  0  0
    1.5017  -42.8929   -0.5108 O   0  0  0  0  0  0  0  0  0  0  0  0
    2.5983  -43.6660   -0.9687 C   0  0  0  0  0  0  0  0  0  0  0  0
    1.0516  -45.6042   -4.4534 C   0  0  0  0  0  0  0  0  0  0  0  0
    0.2460  -45.4409   -3.1412 C   0  0  0  0  0  0  0  0  0  0  0  0
   -0.5405  -46.5787   -2.9096 O   0  0  0  0  0  0  0  0  0  0  0  0
    1.0733  -45.2238   -2.0048 O   0  0  0  0  0  0  0  0  0  0  0  0
    2.2365  -44.4366   -2.2545 C   0  0  0  0  0  0  0  0  0  0  0  0
    2.1043  -43.4772   -3.4639 C   0  0  0  0  0  0  0  0  0  0  0  0
    3.2969  -42.7547   -3.6349 O   0  0  0  0  0  0  0  0  0  0  0  0
    1.7831  -44.2672   -4.7580 C   0  0  0  0  0  0  0  0  0  0  0  0
    0.9831  -43.4618   -5.5860 O   0  0  0  0  0  0  0  0  0  0  0  0
   -1.3031  -46.5375   -3.5450 H   0  0  0  0  0  0  0  0  0  0  0  0
    3.0801  -41.9759   -4.2119 H   0  0  0  0  0  0  0  0  0  0  0  0
    1.0723  -43.8173   -6.5100 H   0  0  0  0  0  0  0  0  0  0  0  0
    2.8654  -49.0329   -4.9154 C   0  0  0  0  0  0  0  0  0  0  0  0
    1.9841  -47.8618   -5.2108 C   0  0  0  0  0  0  0  0  0  0  0  0
    1.2350  -47.8845   -6.2254 O   0  0  0  0  0  0  0  0  0  0  0  0
    2.0078  -46.7195   -4.3452 N   0  0  0  0  0  0  0  0  0  0  0  0
    2.7859  -46.6695   -3.6493 H   0  0  0  0  0  0  0  0  0  0  0  0
109110  1  0  0  0
110111  2  0  0  0
110112  1  0  0  0
112 97  1  0  0  0
112113  1  0  0  0
 97 98  1  0  0  0
 97104  1  0  0  0
 98 99  1  0  0  0
 98100  1  0  0  0
 99106  1  0  0  0
100101  1  0  0  0
101 96  1  0  0  0
101102  1  0  0  0
 96 95  1  0  0  0
 95 79  1  0  0  0
 79 80  1  0  0  0
 79 85  1  0  0  0
 80 81  1  0  0  0
 81 92  1  0  0  0
 81 82  1  0  0  0
 92 93  1  0  0  0
 93 94  1  0  0  0
 82 78  1  0  0  0
 82 83  1  0  0  0
 78  1  1  0  0  0
  1  2  1  0  0  0
  1  7  1  0  0  0
  2  3  1  0  0  0
  3 11  1  0  0  0
  3  4  1  0  0  0
 11 12  2  0  0  0
 11 13  1  0  0  0
 13 15  1  0  0  0
 13 14  1  0  0  0
 15 19  1  0  0  0
 15 16  1  0  0  0
 19 20  1  0  0  0
 20 21  1  0  0  0
 16 17  1  0  0  0
 16 18  2  0  0  0
  4 22  1  0  0  0
  4  5  1  0  0  0
 22 23  1  0  0  0
 23 24  1  0  0  0
 23 30  1  0  0  0
 24 25  1  0  0  0
 25 38  1  0  0  0
 25 26  1  0  0  0
 38 39  1  0  0  0
 39 40  1  0  0  0
 40 41  1  0  0  0
 40 46  1  0  0  0
 41 42  1  0  0  0
 42 53  1  0  0  0
 42 43  1  0  0  0
 53 54  1  0  0  0
 54 55  1  0  0  0
 43 56  1  0  0  0
 43 44  1  0  0  0
 56 57  1  0  0  0
 57 58  1  0  0  0
 57 63  1  0  0  0
 58 59  1  0  0  0
 59 67  1  0  0  0
 59 60  2  0  0  0
 67 68  2  0  0  0
 67 69  1  0  0  0
 69 71  1  0  0  0
 69 70  1  0  0  0
 71 75  1  0  0  0
 71 72  1  0  0  0
 75 76  1  0  0  0
 76 77  1  0  0  0
 72 73  1  0  0  0
 72 74  2  0  0  0
 60 61  1  0  0  0
 61 62  1  0  0  0
 61 63  1  0  0  0
 62 65  1  0  0  0
 63 64  1  0  0  0
 64 66  1  0  0  0
 44 45  1  0  0  0
 44 46  1  0  0  0
 45 47  1  0  0  0
 46 48  1  0  0  0
 48 49  1  0  0  0
 48 52  1  0  0  0
 49 50  1  0  0  0
 49 51  2  0  0  0
 26 27  1  0  0  0
 26 28  1  0  0  0
 27 31  1  0  0  0
 28 29  1  0  0  0
 28 30  1  0  0  0
 29 32  1  0  0  0
 30 33  1  0  0  0
 33 34  1  0  0  0
 33 37  1  0  0  0
 34 35  1  0  0  0
 34 36  2  0  0  0
  5  6  1  0  0  0
  5  7  1  0  0  0
  6  9  1  0  0  0
  7  8  1  0  0  0
  8 10  1  0  0  0
 83 84  1  0  0  0
 83 85  1  0  0  0
 84 86  1  0  0  0
 85 87  1  0  0  0
 87 88  1  0  0  0
 87 91  1  0  0  0
 88 89  1  0  0  0
 88 90  2  0  0  0
102103  1  0  0  0
102104  1  0  0  0
103107  1  0  0  0
104105  1  0  0  0
105108  1  0  0  0
M  CHG 1  17  -1
M  CHG 1  73  -1
M  END
> <COMPND>
    ../0-casp/lQQhMR.pdb 

> <AUTHOR>
    GENERATED BY OPEN BABEL 3.1.0

> <MASTER>
        0    0    0    0    0    0    0    0  168    0  168    0

> <minimizedAffinity>
-7.87003

> <CNNscore>
0.1783623248

> <CNNaffinity>
4.5807051659

> <CNN_VS>
0.8170252442

> <CNNaffinity_variance>
1.3095545769

$$$$
